XFLR5 v6.02 Beta

Rounded tunnel shape
T1-18.0 m/s-Panel-x0.000mm
QInf  =   18.000000 m/s
Alpha =    9.000000
Beta  =    0.000°
Phi   =    0.000°
Ctrl  =    0.000
CL    =    0.748646
Cy    =    0.000000
Cd    =    0.045480     ICd   =    0.033544     PCd   =    0.011937
Cl   = 1.38235e-16
Cm   =   -0.204929
ICn   =   -0.000000     PCn   =   -0.000000 
XCP   =    0.042680     YCP   =   -0.000000 
XNP   =    0.000000
Bend. =    1.677856

Rounded tunnel shape
  y-span        Chord      Ai         Cl        PCd          ICd        CmGeom      CmAirf      XTrtop    XTrBot      XCP       BM
   -0.4176     0.1453   -15.491    0.072421    0.012037    0.020994   -0.192346   -0.180541     0.8607    0.9393    5.7034    0.0000
   -0.4162     0.1495    -5.286    0.143972    0.011806    0.013519   -0.120117   -0.049542     0.8464    0.9576    0.4742    0.0000
   -0.4139     0.1533    -4.990    0.206636    0.011521    0.018294   -0.106131   -0.025311     0.8316    0.9712    0.3401    0.0000
   -0.4107     0.1564    -4.645    0.264721    0.011243    0.021786   -0.098645   -0.014661     0.8170    0.9830    0.2950    0.0001
   -0.4069     0.1586    -4.284    0.320872    0.010912    0.024326   -0.101342   -0.011727     0.8021    0.9930    0.2808    0.0003
   -0.4026     0.1597    -3.955    0.380695    0.010659    0.026612   -0.116810   -0.017116     0.7813    0.9996    0.2901    0.0007
   -0.3833     0.1600    -3.791    0.473620    0.010534    0.031714   -0.121348   -0.000444     0.7358    1.0000    0.2468    0.0036
   -0.3500     0.1600    -3.405    0.588789    0.010651    0.035361   -0.153006   -0.001823     0.6728    1.0000    0.2489    0.0255
   -0.3167     0.1600    -3.090    0.666737    0.010875    0.036305   -0.177056   -0.004955     0.6226    1.0000    0.2532    0.0683
   -0.2833     0.1600    -2.836    0.722415    0.011036    0.036075   -0.194575   -0.007467     0.5773    1.0000    0.2560    0.1349
   -0.2500     0.1600    -2.633    0.763570    0.011283    0.035369   -0.207498   -0.009295     0.5325    1.0000    0.2577    0.2272
   -0.2167     0.1600    -2.470    0.794581    0.011569    0.034516   -0.217163   -0.010605     0.4891    1.0000    0.2588    0.3466
   -0.1833     0.1600    -2.342    0.818123    0.011938    0.033676   -0.224440   -0.011543     0.4487    1.0000    0.2595    0.4942
   -0.1500     0.1600    -2.242    0.835914    0.012216    0.032928   -0.229897   -0.012214     0.4182    1.0000    0.2600    0.6708
   -0.1167     0.1600    -2.166    0.849092    0.012601    0.032309   -0.233914   -0.012686     0.3877    1.0000    0.2603    0.8771
   -0.0833     0.1600    -2.112    0.858417    0.012878    0.031837   -0.236742   -0.013008     0.3660    1.0000    0.2605    1.1135
   -0.0500     0.1600    -2.076    0.864386    0.013055    0.031520   -0.238546   -0.013208     0.3521    1.0000    0.2606    1.3803
   -0.0167     0.1600    -2.059    0.867299    0.013142    0.031361   -0.239425   -0.013304     0.3453    1.0000    0.2607    1.6779
    0.0167     0.1600    -2.059    0.867299    0.013142    0.031361   -0.239425   -0.013304     0.3453    1.0000    0.2607    1.6779
    0.0500     0.1600    -2.076    0.864386    0.013055    0.031520   -0.238546   -0.013208     0.3521    1.0000    0.2606    1.3803
    0.0833     0.1600    -2.112    0.858417    0.012878    0.031837   -0.236742   -0.013008     0.3660    1.0000    0.2605    1.1135
    0.1167     0.1600    -2.166    0.849092    0.012601    0.032309   -0.233914   -0.012686     0.3877    1.0000    0.2603    0.8771
    0.1500     0.1600    -2.242    0.835914    0.012216    0.032928   -0.229897   -0.012214     0.4182    1.0000    0.2600    0.6708
    0.1833     0.1600    -2.342    0.818123    0.011938    0.033676   -0.224440   -0.011543     0.4487    1.0000    0.2595    0.4942
    0.2167     0.1600    -2.470    0.794581    0.011569    0.034516   -0.217163   -0.010605     0.4891    1.0000    0.2588    0.3466
    0.2500     0.1600    -2.633    0.763570    0.011283    0.035369   -0.207498   -0.009295     0.5325    1.0000    0.2577    0.2272
    0.2833     0.1600    -2.836    0.722415    0.011036    0.036075   -0.194575   -0.007467     0.5773    1.0000    0.2560    0.1349
    0.3167     0.1600    -3.090    0.666737    0.010875    0.036305   -0.177056   -0.004955     0.6226    1.0000    0.2532    0.0683
    0.3500     0.1600    -3.405    0.588789    0.010651    0.035361   -0.153006   -0.001823     0.6728    1.0000    0.2489    0.0255
    0.3833     0.1600    -3.791    0.473620    0.010534    0.031714   -0.121348   -0.000444     0.7358    1.0000    0.2468    0.0036
    0.4026     0.1597    -3.955    0.380695    0.010659    0.026612   -0.116810   -0.017116     0.7813    0.9996    0.2901    0.0007
    0.4069     0.1586    -4.284    0.320872    0.010912    0.024326   -0.101342   -0.011727     0.8021    0.9930    0.2808    0.0003
    0.4107     0.1564    -4.645    0.264721    0.011243    0.021786   -0.098645   -0.014661     0.8170    0.9830    0.2950    0.0001
    0.4139     0.1533    -4.990    0.206636    0.011521    0.018294   -0.106131   -0.025311     0.8316    0.9712    0.3401    0.0000
    0.4162     0.1495    -5.286    0.143972    0.011806    0.013519   -0.120117   -0.049542     0.8464    0.9576    0.4742    0.0000
    0.4176     0.1453   -15.491    0.072421    0.012037    0.020994   -0.192346   -0.180541     0.8607    0.9393    5.7034    0.0000


Wing Cp Coefficients
 Panel     CtrlPt.x        CtrlPt.y        CtrlPt.z             Cp
Rounded tunnel shapeCp Coefficients
Strip 1
   8       1.572e-01      -4.166e-01      -9.943e-05         -4.9416
   9       1.466e-01      -4.166e-01      -7.589e-04         -1.4904
  10       1.269e-01      -4.166e-01      -2.188e-03         -0.5983
  11       1.013e-01      -4.166e-01      -3.746e-03         -0.6079
  12       7.346e-02      -4.166e-01      -4.652e-03         -1.2077
  13       4.777e-02      -4.166e-01      -4.575e-03         -2.3606
  14       2.812e-02      -4.166e-01      -3.424e-03         -3.3675
  15       1.748e-02      -4.166e-01      -1.398e-03         -1.9182
  16       1.748e-02      -4.166e-01       1.978e-03         -0.3933
  17       2.812e-02      -4.166e-01       6.188e-03         -0.5807
  18       4.777e-02      -4.166e-01       9.148e-03         -1.5232
  19       7.346e-02      -4.166e-01       9.755e-03         -2.4553
  20       1.013e-01      -4.166e-01       7.893e-03         -1.5119
  21       1.269e-01      -4.166e-01       4.621e-03         -1.1055
  22       1.466e-01      -4.166e-01       1.711e-03         -1.7933
  23       1.572e-01      -4.166e-01       2.818e-04         -5.2586
Strip 2
  24       1.572e-01      -4.155e-01      -1.023e-04         -2.5616
  25       1.462e-01      -4.155e-01      -7.810e-04         -0.8953
  26       1.260e-01      -4.155e-01      -2.252e-03         -0.3328
  27       9.955e-02      -4.155e-01      -3.855e-03         -0.2126
  28       7.094e-02      -4.155e-01      -4.787e-03         -0.2113
  29       4.451e-02      -4.155e-01      -4.708e-03         -0.2643
  30       2.428e-02      -4.155e-01      -3.523e-03         -0.4061
  31       1.334e-02      -4.155e-01      -1.439e-03         -0.7709
  32       1.334e-02      -4.155e-01       2.036e-03         -0.4337
  33       2.428e-02      -4.155e-01       6.368e-03         -0.6075
  34       4.451e-02      -4.155e-01       9.414e-03         -0.6581
  35       7.094e-02      -4.155e-01       1.004e-02         -0.6149
  36       9.955e-02      -4.155e-01       8.122e-03         -0.4162
  37       1.260e-01      -4.155e-01       4.755e-03         -0.3862
  38       1.462e-01      -4.155e-01       1.761e-03         -1.0952
  39       1.572e-01      -4.155e-01       2.900e-04         -2.9218
Strip 3
  40       1.571e-01      -4.133e-01      -1.049e-04         -0.7540
  41       1.459e-01      -4.133e-01      -8.008e-04         -0.5334
  42       1.251e-01      -4.133e-01      -2.309e-03         -0.2818
  43       9.802e-02      -4.133e-01      -3.953e-03         -0.1737
  44       6.868e-02      -4.133e-01      -4.908e-03         -0.1207
  45       4.158e-02      -4.133e-01      -4.828e-03         -0.0798
  46       2.084e-02      -4.133e-01      -3.613e-03         -0.0432
  47       9.617e-03      -4.133e-01      -1.475e-03          0.0059
  48       9.617e-03      -4.133e-01       2.087e-03         -0.5144
  49       2.084e-02      -4.133e-01       6.530e-03         -0.6238
  50       4.158e-02      -4.133e-01       9.652e-03         -0.5237
  51       6.868e-02      -4.133e-01       1.029e-02         -0.4409
  52       9.802e-02      -4.133e-01       8.328e-03         -0.3454
  53       1.251e-01      -4.133e-01       4.876e-03         -0.3645
  54       1.459e-01      -4.133e-01       1.806e-03         -0.6670
  55       1.571e-01      -4.133e-01       2.974e-04         -0.9061
Strip 4
  56       1.570e-01      -4.102e-01      -1.070e-04         -0.3030
  57       1.456e-01      -4.102e-01      -8.169e-04         -0.2786
  58       1.244e-01      -4.102e-01      -2.356e-03         -0.2019
  59       9.676e-02      -4.102e-01      -4.033e-03         -0.1364
  60       6.684e-02      -4.102e-01      -5.007e-03         -0.0847
  61       3.919e-02      -4.102e-01      -4.925e-03         -0.0335
  62       1.803e-02      -4.102e-01      -3.686e-03          0.0723
  63       6.581e-03      -4.102e-01      -1.505e-03          0.3955
  64       6.581e-03      -4.102e-01       2.129e-03         -0.6115
  65       1.803e-02      -4.102e-01       6.662e-03         -0.6513
  66       3.919e-02      -4.102e-01       9.847e-03         -0.5013
  67       6.684e-02      -4.102e-01       1.050e-02         -0.3988
  68       9.676e-02      -4.102e-01       8.496e-03         -0.3081
  69       1.244e-01      -4.102e-01       4.974e-03         -0.2873
  70       1.456e-01      -4.102e-01       1.842e-03         -0.3674
  71       1.570e-01      -4.102e-01       3.034e-04         -0.4039
Strip 5
  72       1.570e-01      -4.064e-01      -1.085e-04         -0.1618
  73       1.454e-01      -4.064e-01      -8.283e-04         -0.1705
  74       1.239e-01      -4.064e-01      -2.389e-03         -0.1339
  75       9.588e-02      -4.064e-01      -4.089e-03         -0.0999
  76       6.554e-02      -4.064e-01      -5.077e-03         -0.0611
  77       3.751e-02      -4.064e-01      -4.994e-03         -0.0056
  78       1.605e-02      -4.064e-01      -3.737e-03          0.1500
  79       4.438e-03      -4.064e-01      -1.526e-03          0.6163
  80       4.438e-03      -4.064e-01       2.159e-03         -0.7242
  81       1.605e-02      -4.064e-01       6.755e-03         -0.6917
  82       3.751e-02      -4.064e-01       9.985e-03         -0.5100
  83       6.554e-02      -4.064e-01       1.065e-02         -0.3888
  84       9.588e-02      -4.064e-01       8.615e-03         -0.2851
  85       1.239e-01      -4.064e-01       5.043e-03         -0.2329
  86       1.454e-01      -4.064e-01       1.868e-03         -0.2520
  87       1.570e-01      -4.064e-01       3.076e-04         -0.2588
Strip 6
  88       1.570e-01      -4.022e-01      -1.093e-04         -0.0511
  89       1.453e-01      -4.022e-01      -8.342e-04         -0.0655
  90       1.237e-01      -4.022e-01      -2.406e-03         -0.0549
  91       9.542e-02      -4.022e-01      -4.118e-03         -0.0607
  92       6.487e-02      -4.022e-01      -5.113e-03         -0.0388
  93       3.663e-02      -4.022e-01      -5.030e-03          0.0209
  94       1.502e-02      -4.022e-01      -3.764e-03          0.2036
  95       3.329e-03      -4.022e-01      -1.537e-03          0.7618
  96       3.329e-03      -4.022e-01       2.174e-03         -0.8713
  97       1.502e-02      -4.022e-01       6.803e-03         -0.7328
  98       3.663e-02      -4.022e-01       1.006e-02         -0.5257
  99       6.487e-02      -4.022e-01       1.072e-02         -0.3884
 100       9.542e-02      -4.022e-01       8.677e-03         -0.2722
 101       1.237e-01      -4.022e-01       5.079e-03         -0.2024
 102       1.453e-01      -4.022e-01       1.881e-03         -0.1823
 103       1.570e-01      -4.022e-01       3.098e-04         -0.1685
Strip 7
 104       1.570e-01      -3.833e-01      -1.095e-04          0.1644
 105       1.452e-01      -3.833e-01      -8.358e-04          0.1100
 106       1.236e-01      -3.833e-01      -2.410e-03          0.0353
 107       9.531e-02      -3.833e-01      -4.126e-03         -0.0063
 108       6.469e-02      -3.833e-01      -5.123e-03          0.0073
 109       3.641e-02      -3.833e-01      -5.039e-03          0.0790
 110       1.476e-02      -3.833e-01      -3.771e-03          0.2953
 111       3.045e-03      -3.833e-01      -1.540e-03          0.9009
 112       3.045e-03      -3.833e-01       2.178e-03         -1.3094
 113       1.476e-02      -3.833e-01       6.815e-03         -0.9449
 114       3.641e-02      -3.833e-01       1.007e-02         -0.6391
 115       6.469e-02      -3.833e-01       1.074e-02         -0.4381
 116       9.531e-02      -3.833e-01       8.692e-03         -0.2519
 117       1.236e-01      -3.833e-01       5.089e-03         -0.0758
 118       1.452e-01      -3.833e-01       1.885e-03          0.0757
 119       1.570e-01      -3.833e-01       3.104e-04          0.1486
Strip 8
 120       1.570e-01      -3.500e-01      -1.095e-04          0.1889
 121       1.452e-01      -3.500e-01      -8.358e-04          0.1375
 122       1.236e-01      -3.500e-01      -2.410e-03          0.0674
 123       9.531e-02      -3.500e-01      -4.126e-03          0.0277
 124       6.469e-02      -3.500e-01      -5.123e-03          0.0479
 125       3.641e-02      -3.500e-01      -5.039e-03          0.1374
 126       1.476e-02      -3.500e-01      -3.771e-03          0.3866
 127       3.045e-03      -3.500e-01      -1.540e-03          0.9723
 128       3.045e-03      -3.500e-01       2.178e-03         -1.7793
 129       1.476e-02      -3.500e-01       6.815e-03         -1.1344
 130       3.641e-02      -3.500e-01       1.007e-02         -0.7631
 131       6.469e-02      -3.500e-01       1.074e-02         -0.5185
 132       9.531e-02      -3.500e-01       8.692e-03         -0.2880
 133       1.236e-01      -3.500e-01       5.089e-03         -0.0742
 134       1.452e-01      -3.500e-01       1.885e-03          0.0971
 135       1.570e-01      -3.500e-01       3.104e-04          0.1772
Strip 9
 136       1.570e-01      -3.167e-01      -1.095e-04          0.1983
 137       1.452e-01      -3.167e-01      -8.358e-04          0.1501
 138       1.236e-01      -3.167e-01      -2.410e-03          0.0848
 139       9.531e-02      -3.167e-01      -4.126e-03          0.0500
 140       6.469e-02      -3.167e-01      -5.123e-03          0.0766
 141       3.641e-02      -3.167e-01      -5.039e-03          0.1763
 142       1.476e-02      -3.167e-01      -3.771e-03          0.4413
 143       3.045e-03      -3.167e-01      -1.540e-03          0.9949
 144       3.045e-03      -3.167e-01       2.178e-03         -2.1175
 145       1.476e-02      -3.167e-01       6.815e-03         -1.2594
 146       3.641e-02      -3.167e-01       1.007e-02         -0.8407
 147       6.469e-02      -3.167e-01       1.074e-02         -0.5729
 148       9.531e-02      -3.167e-01       8.692e-03         -0.3206
 149       1.236e-01      -3.167e-01       5.089e-03         -0.0871
 150       1.452e-01      -3.167e-01       1.885e-03          0.0980
 151       1.570e-01      -3.167e-01       3.104e-04          0.1847
Strip 10
 152       1.570e-01      -2.833e-01      -1.095e-04          0.2028
 153       1.452e-01      -2.833e-01      -8.358e-04          0.1572
 154       1.236e-01      -2.833e-01      -2.410e-03          0.0962
 155       9.531e-02      -2.833e-01      -4.126e-03          0.0659
 156       6.469e-02      -2.833e-01      -5.123e-03          0.0975
 157       3.641e-02      -2.833e-01      -5.039e-03          0.2039
 158       1.476e-02      -2.833e-01      -3.771e-03          0.4789
 159       3.045e-03      -2.833e-01      -1.540e-03          0.9998
 160       3.045e-03      -2.833e-01       2.178e-03         -2.3748
 161       1.476e-02      -2.833e-01       6.815e-03         -1.3497
 162       3.641e-02      -2.833e-01       1.007e-02         -0.8945
 163       6.469e-02      -2.833e-01       1.074e-02         -0.6105
 164       9.531e-02      -2.833e-01       8.692e-03         -0.3445
 165       1.236e-01      -2.833e-01       5.089e-03         -0.0988
 166       1.452e-01      -2.833e-01       1.885e-03          0.0953
 167       1.570e-01      -2.833e-01       3.104e-04          0.1864
Strip 11
 168       1.570e-01      -2.500e-01      -1.095e-04          0.2052
 169       1.452e-01      -2.500e-01      -8.358e-04          0.1617
 170       1.236e-01      -2.500e-01      -2.410e-03          0.1042
 171       9.531e-02      -2.500e-01      -4.126e-03          0.0775
 172       6.469e-02      -2.500e-01      -5.123e-03          0.1129
 173       3.641e-02      -2.500e-01      -5.039e-03          0.2241
 174       1.476e-02      -2.500e-01      -3.771e-03          0.5061
 175       3.045e-03      -2.500e-01      -1.540e-03          0.9972
 176       3.045e-03      -2.500e-01       2.178e-03         -2.5754
 177       1.476e-02      -2.500e-01       6.815e-03         -1.4177
 178       3.641e-02      -2.500e-01       1.007e-02         -0.9338
 179       6.469e-02      -2.500e-01       1.074e-02         -0.6377
 180       9.531e-02      -2.500e-01       8.692e-03         -0.3621
 181       1.236e-01      -2.500e-01       5.089e-03         -0.1081
 182       1.452e-01      -2.500e-01       1.885e-03          0.0922
 183       1.570e-01      -2.500e-01       3.104e-04          0.1865
Strip 12
 184       1.570e-01      -2.167e-01      -1.095e-04          0.2068
 185       1.452e-01      -2.167e-01      -8.358e-04          0.1648
 186       1.236e-01      -2.167e-01      -2.410e-03          0.1100
 187       9.531e-02      -2.167e-01      -4.126e-03          0.0861
 188       6.469e-02      -2.167e-01      -5.123e-03          0.1245
 189       3.641e-02      -2.167e-01      -5.039e-03          0.2393
 190       1.476e-02      -2.167e-01      -3.771e-03          0.5264
 191       3.045e-03      -2.167e-01      -1.540e-03          0.9915
 192       3.045e-03      -2.167e-01       2.178e-03         -2.7331
 193       1.476e-02      -2.167e-01       6.815e-03         -1.4698
 194       3.641e-02      -2.167e-01       1.007e-02         -0.9632
 195       6.469e-02      -2.167e-01       1.074e-02         -0.6577
 196       9.531e-02      -2.167e-01       8.692e-03         -0.3751
 197       1.236e-01      -2.167e-01       5.089e-03         -0.1152
 198       1.452e-01      -2.167e-01       1.885e-03          0.0895
 199       1.570e-01      -2.167e-01       3.104e-04          0.1860
Strip 13
 200       1.570e-01      -1.833e-01      -1.095e-04          0.2078
 201       1.452e-01      -1.833e-01      -8.358e-04          0.1671
 202       1.236e-01      -1.833e-01      -2.410e-03          0.1143
 203       9.531e-02      -1.833e-01      -4.126e-03          0.0926
 204       6.469e-02      -1.833e-01      -5.123e-03          0.1332
 205       3.641e-02      -1.833e-01      -5.039e-03          0.2507
 206       1.476e-02      -1.833e-01      -3.771e-03          0.5417
 207       3.045e-03      -1.833e-01      -1.540e-03          0.9849
 208       3.045e-03      -1.833e-01       2.178e-03         -2.8570
 209       1.476e-02      -1.833e-01       6.815e-03         -1.5099
 210       3.641e-02      -1.833e-01       1.007e-02         -0.9854
 211       6.469e-02      -1.833e-01       1.074e-02         -0.6726
 212       9.531e-02      -1.833e-01       8.692e-03         -0.3848
 213       1.236e-01      -1.833e-01       5.089e-03         -0.1206
 214       1.452e-01      -1.833e-01       1.885e-03          0.0873
 215       1.570e-01      -1.833e-01       3.104e-04          0.1855
Strip 14
 216       1.570e-01      -1.500e-01      -1.095e-04          0.2085
 217       1.452e-01      -1.500e-01      -8.358e-04          0.1687
 218       1.236e-01      -1.500e-01      -2.410e-03          0.1174
 219       9.531e-02      -1.500e-01      -4.126e-03          0.0974
 220       6.469e-02      -1.500e-01      -5.123e-03          0.1398
 221       3.641e-02      -1.500e-01      -5.039e-03          0.2594
 222       1.476e-02      -1.500e-01      -3.771e-03          0.5532
 223       3.045e-03      -1.500e-01      -1.540e-03          0.9786
 224       3.045e-03      -1.500e-01       2.178e-03         -2.9532
 225       1.476e-02      -1.500e-01       6.815e-03         -1.5407
 226       3.641e-02      -1.500e-01       1.007e-02         -1.0022
 227       6.469e-02      -1.500e-01       1.074e-02         -0.6838
 228       9.531e-02      -1.500e-01       8.692e-03         -0.3920
 229       1.236e-01      -1.500e-01       5.089e-03         -0.1247
 230       1.452e-01      -1.500e-01       1.885e-03          0.0856
 231       1.570e-01      -1.500e-01       3.104e-04          0.1850
Strip 15
 232       1.570e-01      -1.167e-01      -1.095e-04          0.2090
 233       1.452e-01      -1.167e-01      -8.358e-04          0.1699
 234       1.236e-01      -1.167e-01      -2.410e-03          0.1197
 235       9.531e-02      -1.167e-01      -4.126e-03          0.1009
 236       6.469e-02      -1.167e-01      -5.123e-03          0.1446
 237       3.641e-02      -1.167e-01      -5.039e-03          0.2658
 238       1.476e-02      -1.167e-01      -3.771e-03          0.5617
 239       3.045e-03      -1.167e-01      -1.540e-03          0.9731
 240       3.045e-03      -1.167e-01       2.178e-03         -3.0258
 241       1.476e-02      -1.167e-01       6.815e-03         -1.5636
 242       3.641e-02      -1.167e-01       1.007e-02         -1.0146
 243       6.469e-02      -1.167e-01       1.074e-02         -0.6920
 244       9.531e-02      -1.167e-01       8.692e-03         -0.3973
 245       1.236e-01      -1.167e-01       5.089e-03         -0.1276
 246       1.452e-01      -1.167e-01       1.885e-03          0.0843
 247       1.570e-01      -1.167e-01       3.104e-04          0.1846
Strip 16
 248       1.570e-01      -8.333e-02      -1.095e-04          0.2093
 249       1.452e-01      -8.333e-02      -8.358e-04          0.1707
 250       1.236e-01      -8.333e-02      -2.410e-03          0.1214
 251       9.531e-02      -8.333e-02      -4.126e-03          0.1034
 252       6.469e-02      -8.333e-02      -5.123e-03          0.1480
 253       3.641e-02      -8.333e-02      -5.039e-03          0.2703
 254       1.476e-02      -8.333e-02      -3.771e-03          0.5676
 255       3.045e-03      -8.333e-02      -1.540e-03          0.9689
 256       3.045e-03      -8.333e-02       2.178e-03         -3.0780
 257       1.476e-02      -8.333e-02       6.815e-03         -1.5800
 258       3.641e-02      -8.333e-02       1.007e-02         -1.0234
 259       6.469e-02      -8.333e-02       1.074e-02         -0.6977
 260       9.531e-02      -8.333e-02       8.692e-03         -0.4010
 261       1.236e-01      -8.333e-02       5.089e-03         -0.1297
 262       1.452e-01      -8.333e-02       1.885e-03          0.0834
 263       1.570e-01      -8.333e-02       3.104e-04          0.1843
Strip 17
 264       1.570e-01      -5.000e-02      -1.095e-04          0.2096
 265       1.452e-01      -5.000e-02      -8.358e-04          0.1712
 266       1.236e-01      -5.000e-02      -2.410e-03          0.1224
 267       9.531e-02      -5.000e-02      -4.126e-03          0.1050
 268       6.469e-02      -5.000e-02      -5.123e-03          0.1502
 269       3.641e-02      -5.000e-02      -5.039e-03          0.2732
 270       1.476e-02      -5.000e-02      -3.771e-03          0.5715
 271       3.045e-03      -5.000e-02      -1.540e-03          0.9660
 272       3.045e-03      -5.000e-02       2.178e-03         -3.1118
 273       1.476e-02      -5.000e-02       6.815e-03         -1.5905
 274       3.641e-02      -5.000e-02       1.007e-02         -1.0290
 275       6.469e-02      -5.000e-02       1.074e-02         -0.7014
 276       9.531e-02      -5.000e-02       8.692e-03         -0.4034
 277       1.236e-01      -5.000e-02       5.089e-03         -0.1311
 278       1.452e-01      -5.000e-02       1.885e-03          0.0829
 279       1.570e-01      -5.000e-02       3.104e-04          0.1841
Strip 18
 280       1.570e-01      -1.667e-02      -1.095e-04          0.2097
 281       1.452e-01      -1.667e-02      -8.358e-04          0.1715
 282       1.236e-01      -1.667e-02      -2.410e-03          0.1229
 283       9.531e-02      -1.667e-02      -4.126e-03          0.1058
 284       6.469e-02      -1.667e-02      -5.123e-03          0.1513
 285       3.641e-02      -1.667e-02      -5.039e-03          0.2746
 286       1.476e-02      -1.667e-02      -3.771e-03          0.5733
 287       3.045e-03      -1.667e-02      -1.540e-03          0.9645
 288       3.045e-03      -1.667e-02       2.178e-03         -3.1284
 289       1.476e-02      -1.667e-02       6.815e-03         -1.5957
 290       3.641e-02      -1.667e-02       1.007e-02         -1.0318
 291       6.469e-02      -1.667e-02       1.074e-02         -0.7032
 292       9.531e-02      -1.667e-02       8.692e-03         -0.4045
 293       1.236e-01      -1.667e-02       5.089e-03         -0.1317
 294       1.452e-01      -1.667e-02       1.885e-03          0.0826
 295       1.570e-01      -1.667e-02       3.104e-04          0.1840
Strip 19
 296       1.570e-01       1.667e-02      -1.095e-04          0.2097
 297       1.452e-01       1.667e-02      -8.358e-04          0.1715
 298       1.236e-01       1.667e-02      -2.410e-03          0.1229
 299       9.531e-02       1.667e-02      -4.126e-03          0.1058
 300       6.469e-02       1.667e-02      -5.123e-03          0.1513
 301       3.641e-02       1.667e-02      -5.039e-03          0.2746
 302       1.476e-02       1.667e-02      -3.771e-03          0.5733
 303       3.045e-03       1.667e-02      -1.540e-03          0.9645
 304       3.045e-03       1.667e-02       2.178e-03         -3.1284
 305       1.476e-02       1.667e-02       6.815e-03         -1.5957
 306       3.641e-02       1.667e-02       1.007e-02         -1.0318
 307       6.469e-02       1.667e-02       1.074e-02         -0.7032
 308       9.531e-02       1.667e-02       8.692e-03         -0.4045
 309       1.236e-01       1.667e-02       5.089e-03         -0.1317
 310       1.452e-01       1.667e-02       1.885e-03          0.0826
 311       1.570e-01       1.667e-02       3.104e-04          0.1840
Strip 20
 312       1.570e-01       5.000e-02      -1.095e-04          0.2096
 313       1.452e-01       5.000e-02      -8.358e-04          0.1712
 314       1.236e-01       5.000e-02      -2.410e-03          0.1224
 315       9.531e-02       5.000e-02      -4.126e-03          0.1050
 316       6.469e-02       5.000e-02      -5.123e-03          0.1502
 317       3.641e-02       5.000e-02      -5.039e-03          0.2732
 318       1.476e-02       5.000e-02      -3.771e-03          0.5715
 319       3.045e-03       5.000e-02      -1.540e-03          0.9660
 320       3.045e-03       5.000e-02       2.178e-03         -3.1118
 321       1.476e-02       5.000e-02       6.815e-03         -1.5905
 322       3.641e-02       5.000e-02       1.007e-02         -1.0290
 323       6.469e-02       5.000e-02       1.074e-02         -0.7014
 324       9.531e-02       5.000e-02       8.692e-03         -0.4034
 325       1.236e-01       5.000e-02       5.089e-03         -0.1311
 326       1.452e-01       5.000e-02       1.885e-03          0.0829
 327       1.570e-01       5.000e-02       3.104e-04          0.1841
Strip 21
 328       1.570e-01       8.333e-02      -1.095e-04          0.2093
 329       1.452e-01       8.333e-02      -8.358e-04          0.1707
 330       1.236e-01       8.333e-02      -2.410e-03          0.1214
 331       9.531e-02       8.333e-02      -4.126e-03          0.1034
 332       6.469e-02       8.333e-02      -5.123e-03          0.1480
 333       3.641e-02       8.333e-02      -5.039e-03          0.2703
 334       1.476e-02       8.333e-02      -3.771e-03          0.5676
 335       3.045e-03       8.333e-02      -1.540e-03          0.9689
 336       3.045e-03       8.333e-02       2.178e-03         -3.0780
 337       1.476e-02       8.333e-02       6.815e-03         -1.5800
 338       3.641e-02       8.333e-02       1.007e-02         -1.0234
 339       6.469e-02       8.333e-02       1.074e-02         -0.6977
 340       9.531e-02       8.333e-02       8.692e-03         -0.4010
 341       1.236e-01       8.333e-02       5.089e-03         -0.1297
 342       1.452e-01       8.333e-02       1.885e-03          0.0834
 343       1.570e-01       8.333e-02       3.104e-04          0.1843
Strip 22
 344       1.570e-01       1.167e-01      -1.095e-04          0.2090
 345       1.452e-01       1.167e-01      -8.358e-04          0.1699
 346       1.236e-01       1.167e-01      -2.410e-03          0.1197
 347       9.531e-02       1.167e-01      -4.126e-03          0.1009
 348       6.469e-02       1.167e-01      -5.123e-03          0.1446
 349       3.641e-02       1.167e-01      -5.039e-03          0.2658
 350       1.476e-02       1.167e-01      -3.771e-03          0.5617
 351       3.045e-03       1.167e-01      -1.540e-03          0.9731
 352       3.045e-03       1.167e-01       2.178e-03         -3.0258
 353       1.476e-02       1.167e-01       6.815e-03         -1.5636
 354       3.641e-02       1.167e-01       1.007e-02         -1.0146
 355       6.469e-02       1.167e-01       1.074e-02         -0.6920
 356       9.531e-02       1.167e-01       8.692e-03         -0.3973
 357       1.236e-01       1.167e-01       5.089e-03         -0.1276
 358       1.452e-01       1.167e-01       1.885e-03          0.0843
 359       1.570e-01       1.167e-01       3.104e-04          0.1846
Strip 23
 360       1.570e-01       1.500e-01      -1.095e-04          0.2085
 361       1.452e-01       1.500e-01      -8.358e-04          0.1687
 362       1.236e-01       1.500e-01      -2.410e-03          0.1174
 363       9.531e-02       1.500e-01      -4.126e-03          0.0974
 364       6.469e-02       1.500e-01      -5.123e-03          0.1398
 365       3.641e-02       1.500e-01      -5.039e-03          0.2594
 366       1.476e-02       1.500e-01      -3.771e-03          0.5532
 367       3.045e-03       1.500e-01      -1.540e-03          0.9786
 368       3.045e-03       1.500e-01       2.178e-03         -2.9532
 369       1.476e-02       1.500e-01       6.815e-03         -1.5407
 370       3.641e-02       1.500e-01       1.007e-02         -1.0022
 371       6.469e-02       1.500e-01       1.074e-02         -0.6838
 372       9.531e-02       1.500e-01       8.692e-03         -0.3920
 373       1.236e-01       1.500e-01       5.089e-03         -0.1247
 374       1.452e-01       1.500e-01       1.885e-03          0.0856
 375       1.570e-01       1.500e-01       3.104e-04          0.1850
Strip 24
 376       1.570e-01       1.833e-01      -1.095e-04          0.2078
 377       1.452e-01       1.833e-01      -8.358e-04          0.1671
 378       1.236e-01       1.833e-01      -2.410e-03          0.1143
 379       9.531e-02       1.833e-01      -4.126e-03          0.0926
 380       6.469e-02       1.833e-01      -5.123e-03          0.1332
 381       3.641e-02       1.833e-01      -5.039e-03          0.2507
 382       1.476e-02       1.833e-01      -3.771e-03          0.5417
 383       3.045e-03       1.833e-01      -1.540e-03          0.9849
 384       3.045e-03       1.833e-01       2.178e-03         -2.8570
 385       1.476e-02       1.833e-01       6.815e-03         -1.5099
 386       3.641e-02       1.833e-01       1.007e-02         -0.9854
 387       6.469e-02       1.833e-01       1.074e-02         -0.6726
 388       9.531e-02       1.833e-01       8.692e-03         -0.3848
 389       1.236e-01       1.833e-01       5.089e-03         -0.1206
 390       1.452e-01       1.833e-01       1.885e-03          0.0873
 391       1.570e-01       1.833e-01       3.104e-04          0.1855
Strip 25
 392       1.570e-01       2.167e-01      -1.095e-04          0.2068
 393       1.452e-01       2.167e-01      -8.358e-04          0.1648
 394       1.236e-01       2.167e-01      -2.410e-03          0.1100
 395       9.531e-02       2.167e-01      -4.126e-03          0.0861
 396       6.469e-02       2.167e-01      -5.123e-03          0.1245
 397       3.641e-02       2.167e-01      -5.039e-03          0.2393
 398       1.476e-02       2.167e-01      -3.771e-03          0.5264
 399       3.045e-03       2.167e-01      -1.540e-03          0.9915
 400       3.045e-03       2.167e-01       2.178e-03         -2.7331
 401       1.476e-02       2.167e-01       6.815e-03         -1.4698
 402       3.641e-02       2.167e-01       1.007e-02         -0.9632
 403       6.469e-02       2.167e-01       1.074e-02         -0.6577
 404       9.531e-02       2.167e-01       8.692e-03         -0.3751
 405       1.236e-01       2.167e-01       5.089e-03         -0.1152
 406       1.452e-01       2.167e-01       1.885e-03          0.0895
 407       1.570e-01       2.167e-01       3.104e-04          0.1860
Strip 26
 408       1.570e-01       2.500e-01      -1.095e-04          0.2052
 409       1.452e-01       2.500e-01      -8.358e-04          0.1617
 410       1.236e-01       2.500e-01      -2.410e-03          0.1042
 411       9.531e-02       2.500e-01      -4.126e-03          0.0775
 412       6.469e-02       2.500e-01      -5.123e-03          0.1129
 413       3.641e-02       2.500e-01      -5.039e-03          0.2241
 414       1.476e-02       2.500e-01      -3.771e-03          0.5061
 415       3.045e-03       2.500e-01      -1.540e-03          0.9972
 416       3.045e-03       2.500e-01       2.178e-03         -2.5754
 417       1.476e-02       2.500e-01       6.815e-03         -1.4177
 418       3.641e-02       2.500e-01       1.007e-02         -0.9338
 419       6.469e-02       2.500e-01       1.074e-02         -0.6377
 420       9.531e-02       2.500e-01       8.692e-03         -0.3621
 421       1.236e-01       2.500e-01       5.089e-03         -0.1081
 422       1.452e-01       2.500e-01       1.885e-03          0.0922
 423       1.570e-01       2.500e-01       3.104e-04          0.1865
Strip 27
 424       1.570e-01       2.833e-01      -1.095e-04          0.2028
 425       1.452e-01       2.833e-01      -8.358e-04          0.1572
 426       1.236e-01       2.833e-01      -2.410e-03          0.0962
 427       9.531e-02       2.833e-01      -4.126e-03          0.0659
 428       6.469e-02       2.833e-01      -5.123e-03          0.0975
 429       3.641e-02       2.833e-01      -5.039e-03          0.2039
 430       1.476e-02       2.833e-01      -3.771e-03          0.4789
 431       3.045e-03       2.833e-01      -1.540e-03          0.9998
 432       3.045e-03       2.833e-01       2.178e-03         -2.3748
 433       1.476e-02       2.833e-01       6.815e-03         -1.3497
 434       3.641e-02       2.833e-01       1.007e-02         -0.8945
 435       6.469e-02       2.833e-01       1.074e-02         -0.6105
 436       9.531e-02       2.833e-01       8.692e-03         -0.3445
 437       1.236e-01       2.833e-01       5.089e-03         -0.0988
 438       1.452e-01       2.833e-01       1.885e-03          0.0953
 439       1.570e-01       2.833e-01       3.104e-04          0.1864
Strip 28
 440       1.570e-01       3.167e-01      -1.095e-04          0.1983
 441       1.452e-01       3.167e-01      -8.358e-04          0.1501
 442       1.236e-01       3.167e-01      -2.410e-03          0.0848
 443       9.531e-02       3.167e-01      -4.126e-03          0.0500
 444       6.469e-02       3.167e-01      -5.123e-03          0.0766
 445       3.641e-02       3.167e-01      -5.039e-03          0.1763
 446       1.476e-02       3.167e-01      -3.771e-03          0.4413
 447       3.045e-03       3.167e-01      -1.540e-03          0.9949
 448       3.045e-03       3.167e-01       2.178e-03         -2.1175
 449       1.476e-02       3.167e-01       6.815e-03         -1.2594
 450       3.641e-02       3.167e-01       1.007e-02         -0.8407
 451       6.469e-02       3.167e-01       1.074e-02         -0.5729
 452       9.531e-02       3.167e-01       8.692e-03         -0.3206
 453       1.236e-01       3.167e-01       5.089e-03         -0.0871
 454       1.452e-01       3.167e-01       1.885e-03          0.0980
 455       1.570e-01       3.167e-01       3.104e-04          0.1847
Strip 29
 456       1.570e-01       3.500e-01      -1.095e-04          0.1889
 457       1.452e-01       3.500e-01      -8.358e-04          0.1375
 458       1.236e-01       3.500e-01      -2.410e-03          0.0674
 459       9.531e-02       3.500e-01      -4.126e-03          0.0277
 460       6.469e-02       3.500e-01      -5.123e-03          0.0479
 461       3.641e-02       3.500e-01      -5.039e-03          0.1374
 462       1.476e-02       3.500e-01      -3.771e-03          0.3866
 463       3.045e-03       3.500e-01      -1.540e-03          0.9723
 464       3.045e-03       3.500e-01       2.178e-03         -1.7793
 465       1.476e-02       3.500e-01       6.815e-03         -1.1344
 466       3.641e-02       3.500e-01       1.007e-02         -0.7631
 467       6.469e-02       3.500e-01       1.074e-02         -0.5185
 468       9.531e-02       3.500e-01       8.692e-03         -0.2880
 469       1.236e-01       3.500e-01       5.089e-03         -0.0742
 470       1.452e-01       3.500e-01       1.885e-03          0.0971
 471       1.570e-01       3.500e-01       3.104e-04          0.1772
Strip 30
 472       1.570e-01       3.833e-01      -1.095e-04          0.1644
 473       1.452e-01       3.833e-01      -8.358e-04          0.1100
 474       1.236e-01       3.833e-01      -2.410e-03          0.0353
 475       9.531e-02       3.833e-01      -4.126e-03         -0.0063
 476       6.469e-02       3.833e-01      -5.123e-03          0.0073
 477       3.641e-02       3.833e-01      -5.039e-03          0.0790
 478       1.476e-02       3.833e-01      -3.771e-03          0.2953
 479       3.045e-03       3.833e-01      -1.540e-03          0.9009
 480       3.045e-03       3.833e-01       2.178e-03         -1.3094
 481       1.476e-02       3.833e-01       6.815e-03         -0.9449
 482       3.641e-02       3.833e-01       1.007e-02         -0.6391
 483       6.469e-02       3.833e-01       1.074e-02         -0.4381
 484       9.531e-02       3.833e-01       8.692e-03         -0.2519
 485       1.236e-01       3.833e-01       5.089e-03         -0.0758
 486       1.452e-01       3.833e-01       1.885e-03          0.0757
 487       1.570e-01       3.833e-01       3.104e-04          0.1486
Strip 31
 488       1.570e-01       4.022e-01      -1.093e-04         -0.0511
 489       1.453e-01       4.022e-01      -8.342e-04         -0.0655
 490       1.237e-01       4.022e-01      -2.406e-03         -0.0549
 491       9.542e-02       4.022e-01      -4.118e-03         -0.0607
 492       6.487e-02       4.022e-01      -5.113e-03         -0.0388
 493       3.663e-02       4.022e-01      -5.030e-03          0.0209
 494       1.502e-02       4.022e-01      -3.764e-03          0.2036
 495       3.329e-03       4.022e-01      -1.537e-03          0.7618
 496       3.329e-03       4.022e-01       2.174e-03         -0.8713
 497       1.502e-02       4.022e-01       6.803e-03         -0.7328
 498       3.663e-02       4.022e-01       1.006e-02         -0.5257
 499       6.487e-02       4.022e-01       1.072e-02         -0.3884
 500       9.542e-02       4.022e-01       8.677e-03         -0.2722
 501       1.237e-01       4.022e-01       5.079e-03         -0.2024
 502       1.453e-01       4.022e-01       1.881e-03         -0.1823
 503       1.570e-01       4.022e-01       3.098e-04         -0.1685
Strip 32
 504       1.570e-01       4.064e-01      -1.085e-04         -0.1618
 505       1.454e-01       4.064e-01      -8.283e-04         -0.1705
 506       1.239e-01       4.064e-01      -2.389e-03         -0.1339
 507       9.588e-02       4.064e-01      -4.089e-03         -0.0999
 508       6.554e-02       4.064e-01      -5.077e-03         -0.0611
 509       3.751e-02       4.064e-01      -4.994e-03         -0.0056
 510       1.605e-02       4.064e-01      -3.737e-03          0.1500
 511       4.438e-03       4.064e-01      -1.526e-03          0.6163
 512       4.438e-03       4.064e-01       2.159e-03         -0.7242
 513       1.605e-02       4.064e-01       6.755e-03         -0.6917
 514       3.751e-02       4.064e-01       9.985e-03         -0.5100
 515       6.554e-02       4.064e-01       1.065e-02         -0.3888
 516       9.588e-02       4.064e-01       8.615e-03         -0.2851
 517       1.239e-01       4.064e-01       5.043e-03         -0.2329
 518       1.454e-01       4.064e-01       1.868e-03         -0.2520
 519       1.570e-01       4.064e-01       3.076e-04         -0.2588
Strip 33
 520       1.570e-01       4.102e-01      -1.070e-04         -0.3030
 521       1.456e-01       4.102e-01      -8.169e-04         -0.2786
 522       1.244e-01       4.102e-01      -2.356e-03         -0.2019
 523       9.676e-02       4.102e-01      -4.033e-03         -0.1364
 524       6.684e-02       4.102e-01      -5.007e-03         -0.0847
 525       3.919e-02       4.102e-01      -4.925e-03         -0.0335
 526       1.803e-02       4.102e-01      -3.686e-03          0.0723
 527       6.581e-03       4.102e-01      -1.505e-03          0.3955
 528       6.581e-03       4.102e-01       2.129e-03         -0.6115
 529       1.803e-02       4.102e-01       6.662e-03         -0.6513
 530       3.919e-02       4.102e-01       9.847e-03         -0.5013
 531       6.684e-02       4.102e-01       1.050e-02         -0.3988
 532       9.676e-02       4.102e-01       8.496e-03         -0.3081
 533       1.244e-01       4.102e-01       4.974e-03         -0.2873
 534       1.456e-01       4.102e-01       1.842e-03         -0.3674
 535       1.570e-01       4.102e-01       3.034e-04         -0.4039
Strip 34
 536       1.571e-01       4.133e-01      -1.049e-04         -0.7540
 537       1.459e-01       4.133e-01      -8.008e-04         -0.5334
 538       1.251e-01       4.133e-01      -2.309e-03         -0.2818
 539       9.802e-02       4.133e-01      -3.953e-03         -0.1737
 540       6.868e-02       4.133e-01      -4.908e-03         -0.1207
 541       4.158e-02       4.133e-01      -4.828e-03         -0.0798
 542       2.084e-02       4.133e-01      -3.613e-03         -0.0432
 543       9.617e-03       4.133e-01      -1.475e-03          0.0059
 544       9.617e-03       4.133e-01       2.087e-03         -0.5144
 545       2.084e-02       4.133e-01       6.530e-03         -0.6238
 546       4.158e-02       4.133e-01       9.652e-03         -0.5237
 547       6.868e-02       4.133e-01       1.029e-02         -0.4409
 548       9.802e-02       4.133e-01       8.328e-03         -0.3454
 549       1.251e-01       4.133e-01       4.876e-03         -0.3645
 550       1.459e-01       4.133e-01       1.806e-03         -0.6670
 551       1.571e-01       4.133e-01       2.974e-04         -0.9061
Strip 35
 552       1.572e-01       4.155e-01      -1.023e-04         -2.5616
 553       1.462e-01       4.155e-01      -7.810e-04         -0.8953
 554       1.260e-01       4.155e-01      -2.252e-03         -0.3328
 555       9.955e-02       4.155e-01      -3.855e-03         -0.2126
 556       7.094e-02       4.155e-01      -4.787e-03         -0.2113
 557       4.451e-02       4.155e-01      -4.708e-03         -0.2643
 558       2.428e-02       4.155e-01      -3.523e-03         -0.4061
 559       1.334e-02       4.155e-01      -1.439e-03         -0.7709
 560       1.334e-02       4.155e-01       2.036e-03         -0.4337
 561       2.428e-02       4.155e-01       6.368e-03         -0.6075
 562       4.451e-02       4.155e-01       9.414e-03         -0.6581
 563       7.094e-02       4.155e-01       1.004e-02         -0.6149
 564       9.955e-02       4.155e-01       8.122e-03         -0.4162
 565       1.260e-01       4.155e-01       4.755e-03         -0.3862
 566       1.462e-01       4.155e-01       1.761e-03         -1.0952
 567       1.572e-01       4.155e-01       2.900e-04         -2.9218
Strip 36
 568       1.572e-01       4.166e-01      -9.943e-05         -4.9416
 569       1.466e-01       4.166e-01      -7.589e-04         -1.4904
 570       1.269e-01       4.166e-01      -2.188e-03         -0.5983
 571       1.013e-01       4.166e-01      -3.746e-03         -0.6079
 572       7.346e-02       4.166e-01      -4.652e-03         -1.2077
 573       4.777e-02       4.166e-01      -4.575e-03         -2.3606
 574       2.812e-02       4.166e-01      -3.424e-03         -3.3675
 575       1.748e-02       4.166e-01      -1.398e-03         -1.9182
 576       1.748e-02       4.166e-01       1.978e-03         -0.3933
 577       2.812e-02       4.166e-01       6.188e-03         -0.5807
 578       4.777e-02       4.166e-01       9.148e-03         -1.5232
 579       7.346e-02       4.166e-01       9.755e-03         -2.4553
 580       1.013e-01       4.166e-01       7.893e-03         -1.5119
 581       1.269e-01       4.166e-01       4.621e-03         -1.1055
 582       1.466e-01       4.166e-01       1.711e-03         -1.7933
 583       1.572e-01       4.166e-01       2.818e-04         -5.2586










