XFLR5 v6.02 Beta

Rounded tunnel shape
T1-18.0 m/s-VLM1-x0.000mm
QInf  =   18.000000 m/s
Alpha =    9.000000
Beta  =    0.000°
Phi   =    0.000°
Ctrl  =    0.000
CL    =    0.732740
Cy    =    0.000000
Cd    =    0.044150     ICd   =    0.032477     PCd   =    0.011672
Cl   = 5.76491e-18
Cm   =   -0.210938
ICn   =    0.000000     PCn   =    0.000000 
XCP   =    0.046303     YCP   =    0.000000 
XNP   =    0.000000
Bend. =    1.655831

Rounded tunnel shape
  y-span        Chord      Ai         Cl        PCd          ICd        CmGeom      CmAirf      XTrtop    XTrBot      XCP       BM
   -0.4176     0.1453    -8.063    0.263906    0.011730    0.071063   -0.089366   -0.035663     0.8314    0.9850    0.4814    0.0000
   -0.4162     0.1495    -7.997    0.194294    0.011736    0.013809   -0.059964   -0.006013     0.8386    0.9691    0.2838    0.0000
   -0.4139     0.1533    -7.942    0.226052    0.011479    0.016261   -0.069650   -0.005674     0.8282    0.9754    0.2741    0.0000
   -0.4107     0.1564    -7.909    0.270479    0.011227    0.020201   -0.080686   -0.007251     0.8158    0.9842    0.2750    0.0001
   -0.4069     0.1586    -7.875    0.319412    0.010919    0.023385   -0.091939   -0.009028     0.8024    0.9927    0.2762    0.0004
   -0.4026     0.1597    -7.813    0.373500    0.010677    0.023791   -0.104383   -0.010081     0.7847    0.9994    0.2749    0.0008
   -0.3833     0.1600    -7.365    0.466836    0.010540    0.030891   -0.131535   -0.013923     0.7392    1.0000    0.2776    0.0038
   -0.3500     0.1600    -6.650    0.580875    0.010636    0.034586   -0.165377   -0.019338     0.6775    1.0000    0.2811    0.0257
   -0.3167     0.1600    -6.052    0.658245    0.010853    0.035550   -0.188620   -0.023416     0.6288    1.0000    0.2835    0.0682
   -0.2833     0.1600    -5.563    0.713616    0.010995    0.035338   -0.205218   -0.026369     0.5856    1.0000    0.2849    0.1340
   -0.2500     0.1600    -5.167    0.754590    0.011201    0.034643   -0.217406   -0.028501     0.5451    1.0000    0.2857    0.2252
   -0.2167     0.1600    -4.849    0.785480    0.011483    0.033796   -0.226511   -0.030050     0.5019    1.0000    0.2863    0.3431
   -0.1833     0.1600    -4.597    0.808935    0.011794    0.032960   -0.233363   -0.031179     0.4644    1.0000    0.2866    0.4887
   -0.1500     0.1600    -4.400    0.826661    0.012071    0.032213   -0.238500   -0.032001     0.4340    1.0000    0.2868    0.6630
   -0.1167     0.1600    -4.251    0.839789    0.012325    0.031595   -0.242279   -0.032589     0.4094    1.0000    0.2869    0.8664
   -0.0833     0.1600    -4.144    0.849078    0.012601    0.031124   -0.244940   -0.032995     0.3878    1.0000    0.2869    1.0995
   -0.0500     0.1600    -4.074    0.855022    0.012777    0.030808   -0.246637   -0.033250     0.3739    1.0000    0.2870    1.3626
   -0.0167     0.1600    -4.040    0.857924    0.012863    0.030649   -0.247463   -0.033372     0.3672    1.0000    0.2870    1.6558
    0.0167     0.1600    -4.040    0.857924    0.012863    0.030649   -0.247463   -0.033372     0.3672    1.0000    0.2870    1.6558
    0.0500     0.1600    -4.074    0.855022    0.012777    0.030808   -0.246637   -0.033250     0.3739    1.0000    0.2870    1.3626
    0.0833     0.1600    -4.144    0.849078    0.012601    0.031124   -0.244940   -0.032995     0.3878    1.0000    0.2869    1.0995
    0.1167     0.1600    -4.251    0.839789    0.012325    0.031595   -0.242279   -0.032589     0.4094    1.0000    0.2869    0.8664
    0.1500     0.1600    -4.400    0.826661    0.012071    0.032213   -0.238500   -0.032001     0.4340    1.0000    0.2868    0.6630
    0.1833     0.1600    -4.597    0.808935    0.011794    0.032960   -0.233363   -0.031179     0.4644    1.0000    0.2866    0.4887
    0.2167     0.1600    -4.849    0.785480    0.011483    0.033796   -0.226511   -0.030050     0.5019    1.0000    0.2863    0.3431
    0.2500     0.1600    -5.167    0.754590    0.011201    0.034643   -0.217406   -0.028501     0.5451    1.0000    0.2857    0.2252
    0.2833     0.1600    -5.563    0.713616    0.010995    0.035338   -0.205218   -0.026369     0.5856    1.0000    0.2849    0.1340
    0.3167     0.1600    -6.052    0.658245    0.010853    0.035550   -0.188620   -0.023416     0.6288    1.0000    0.2835    0.0682
    0.3500     0.1600    -6.650    0.580875    0.010636    0.034586   -0.165377   -0.019338     0.6775    1.0000    0.2811    0.0257
    0.3833     0.1600    -7.365    0.466836    0.010540    0.030891   -0.131535   -0.013923     0.7392    1.0000    0.2776    0.0038
    0.4026     0.1597    -7.813    0.373500    0.010677    0.023791   -0.104383   -0.010081     0.7847    0.9994    0.2749    0.0008
    0.4069     0.1586    -7.875    0.319412    0.010919    0.023385   -0.091939   -0.009028     0.8024    0.9927    0.2762    0.0004
    0.4107     0.1564    -7.909    0.270479    0.011227    0.020201   -0.080686   -0.007251     0.8158    0.9842    0.2750    0.0001
    0.4139     0.1533    -7.942    0.226052    0.011479    0.016261   -0.069650   -0.005674     0.8282    0.9754    0.2741    0.0000
    0.4162     0.1495    -7.997    0.194294    0.011736    0.013809   -0.059964   -0.006013     0.8386    0.9691    0.2838    0.0000



Wing Cp Coefficients
 Panel     CtrlPt.x        CtrlPt.y        CtrlPt.z             Cp
Rounded tunnel shapeCp Coefficients
Strip 1
   8       1.586e-01      -4.155e-01       4.692e-05          0.0768
   9       1.503e-01      -4.155e-01       3.389e-04          0.0717
  10       1.320e-01      -4.155e-01       1.022e-03          0.0822
  11       1.067e-01      -4.155e-01       1.922e-03          0.0812
  12       7.809e-02      -4.155e-01       2.591e-03          0.1508
  13       5.057e-02      -4.155e-01       2.524e-03          0.2430
  14       2.833e-02      -4.155e-01       1.716e-03          0.3624
  15       1.476e-02      -4.155e-01       5.664e-04          0.6441
Strip 2
  16       1.585e-01      -4.133e-01       4.811e-05          0.0612
  17       1.500e-01      -4.133e-01       3.475e-04          0.0753
  18       1.313e-01      -4.133e-01       1.048e-03          0.0919
  19       1.053e-01      -4.133e-01       1.971e-03          0.1230
  20       7.602e-02      -4.133e-01       2.657e-03          0.2017
  21       4.780e-02      -4.133e-01       2.588e-03          0.3023
  22       2.500e-02      -4.133e-01       1.760e-03          0.4830
  23       1.108e-02      -4.133e-01       5.807e-04          0.7977
Strip 3
  24       1.585e-01      -4.102e-01       4.908e-05          0.0477
  25       1.498e-01      -4.102e-01       3.545e-04          0.0805
  26       1.308e-01      -4.102e-01       1.069e-03          0.1146
  27       1.042e-01      -4.102e-01       2.010e-03          0.1695
  28       7.432e-02      -4.102e-01       2.711e-03          0.2549
  29       4.554e-02      -4.102e-01       2.640e-03          0.3697
  30       2.227e-02      -4.102e-01       1.795e-03          0.5995
  31       8.069e-03      -4.102e-01       5.924e-04          0.9099
Strip 4
  32       1.585e-01      -4.064e-01       4.977e-05          0.0366
  33       1.497e-01      -4.064e-01       3.595e-04          0.0838
  34       1.303e-01      -4.064e-01       1.084e-03          0.1390
  35       1.035e-01      -4.064e-01       2.039e-03          0.2165
  36       7.312e-02      -4.064e-01       2.748e-03          0.3096
  37       4.394e-02      -4.064e-01       2.677e-03          0.4401
  38       2.035e-02      -4.064e-01       1.821e-03          0.7073
  39       5.947e-03      -4.064e-01       6.007e-04          1.0298
Strip 5
  40       1.585e-01      -4.022e-01       5.012e-05          0.0209
  41       1.496e-01      -4.022e-01       3.620e-04          0.0830
  42       1.301e-01      -4.022e-01       1.092e-03          0.1629
  43       1.031e-01      -4.022e-01       2.053e-03          0.2661
  44       7.251e-02      -4.022e-01       2.768e-03          0.3686
  45       4.311e-02      -4.022e-01       2.696e-03          0.5142
  46       1.935e-02      -4.022e-01       1.834e-03          0.8158
  47       4.849e-03      -4.022e-01       6.050e-04          1.2017
Strip 6
  48       1.585e-01      -3.833e-01       5.021e-05          0.0460
  49       1.496e-01      -3.833e-01       3.627e-04          0.1140
  50       1.301e-01      -3.833e-01       1.094e-03          0.2081
  51       1.030e-01      -3.833e-01       2.057e-03          0.3311
  52       7.235e-02      -3.833e-01       2.773e-03          0.4602
  53       4.290e-02      -3.833e-01       2.701e-03          0.6431
  54       1.910e-02      -3.833e-01       1.837e-03          0.9936
  55       4.567e-03      -3.833e-01       6.061e-04          1.5777
Strip 7
  56       1.585e-01      -3.500e-01       5.021e-05          0.0648
  57       1.496e-01      -3.500e-01       3.627e-04          0.1491
  58       1.301e-01      -3.500e-01       1.094e-03          0.2658
  59       1.030e-01      -3.500e-01       2.057e-03          0.4162
  60       7.235e-02      -3.500e-01       2.773e-03          0.5740
  61       4.290e-02      -3.500e-01       2.701e-03          0.7885
  62       1.910e-02      -3.500e-01       1.837e-03          1.1957
  63       4.567e-03      -3.500e-01       6.061e-04          2.0094
Strip 8
  64       1.585e-01      -3.167e-01       5.021e-05          0.0790
  65       1.496e-01      -3.167e-01       3.627e-04          0.1751
  66       1.301e-01      -3.167e-01       1.094e-03          0.3069
  67       1.030e-01      -3.167e-01       2.057e-03          0.4742
  68       7.235e-02      -3.167e-01       2.773e-03          0.6495
  69       4.290e-02      -3.167e-01       2.701e-03          0.8837
  70       1.910e-02      -3.167e-01       1.837e-03          1.3302
  71       4.567e-03      -3.167e-01       6.061e-04          2.3027
Strip 9
  72       1.585e-01      -2.833e-01       5.021e-05          0.0897
  73       1.496e-01      -2.833e-01       3.627e-04          0.1944
  74       1.301e-01      -2.833e-01       1.094e-03          0.3367
  75       1.030e-01      -2.833e-01       2.057e-03          0.5154
  76       7.235e-02      -2.833e-01       2.773e-03          0.7022
  77       4.290e-02      -2.833e-01       2.701e-03          0.9503
  78       1.910e-02      -2.833e-01       1.837e-03          1.4264
  79       4.567e-03      -2.833e-01       6.061e-04          2.5159
Strip 10
  80       1.585e-01      -2.500e-01       5.021e-05          0.0978
  81       1.496e-01      -2.500e-01       3.627e-04          0.2089
  82       1.301e-01      -2.500e-01       1.094e-03          0.3587
  83       1.030e-01      -2.500e-01       2.057e-03          0.5454
  84       7.235e-02      -2.500e-01       2.773e-03          0.7404
  85       4.290e-02      -2.500e-01       2.701e-03          0.9990
  86       1.910e-02      -2.500e-01       1.837e-03          1.4980
  87       4.567e-03      -2.500e-01       6.061e-04          2.6764
Strip 11
  88       1.585e-01      -2.167e-01       5.021e-05          0.1040
  89       1.496e-01      -2.167e-01       3.627e-04          0.2198
  90       1.301e-01      -2.167e-01       1.094e-03          0.3752
  91       1.030e-01      -2.167e-01       2.057e-03          0.5676
  92       7.235e-02      -2.167e-01       2.773e-03          0.7688
  93       4.290e-02      -2.167e-01       2.701e-03          1.0355
  94       1.910e-02      -2.167e-01       1.837e-03          1.5523
  95       4.567e-03      -2.167e-01       6.061e-04          2.7992
Strip 12
  96       1.585e-01      -1.833e-01       5.021e-05          0.1086
  97       1.496e-01      -1.833e-01       3.627e-04          0.2281
  98       1.301e-01      -1.833e-01       1.094e-03          0.3876
  99       1.030e-01      -1.833e-01       2.057e-03          0.5843
 100       7.235e-02      -1.833e-01       2.773e-03          0.7900
 101       4.290e-02      -1.833e-01       2.701e-03          1.0631
 102       1.910e-02      -1.833e-01       1.837e-03          1.5938
 103       4.567e-03      -1.833e-01       6.061e-04          2.8937
Strip 13
 104       1.585e-01      -1.500e-01       5.021e-05          0.1122
 105       1.496e-01      -1.500e-01       3.627e-04          0.2343
 106       1.301e-01      -1.500e-01       1.094e-03          0.3969
 107       1.030e-01      -1.500e-01       2.057e-03          0.5968
 108       7.235e-02      -1.500e-01       2.773e-03          0.8060
 109       4.290e-02      -1.500e-01       2.701e-03          1.0839
 110       1.910e-02      -1.500e-01       1.837e-03          1.6253
 111       4.567e-03      -1.500e-01       6.061e-04          2.9657
Strip 14
 112       1.585e-01      -1.167e-01       5.021e-05          0.1147
 113       1.496e-01      -1.167e-01       3.627e-04          0.2388
 114       1.301e-01      -1.167e-01       1.094e-03          0.4037
 115       1.030e-01      -1.167e-01       2.057e-03          0.6059
 116       7.235e-02      -1.167e-01       2.773e-03          0.8177
 117       4.290e-02      -1.167e-01       2.701e-03          1.0993
 118       1.910e-02      -1.167e-01       1.837e-03          1.6488
 119       4.567e-03      -1.167e-01       6.061e-04          3.0196
Strip 15
 120       1.585e-01      -8.333e-02       5.021e-05          0.1166
 121       1.496e-01      -8.333e-02       3.627e-04          0.2421
 122       1.301e-01      -8.333e-02       1.094e-03          0.4085
 123       1.030e-01      -8.333e-02       2.057e-03          0.6123
 124       7.235e-02      -8.333e-02       2.773e-03          0.8260
 125       4.290e-02      -8.333e-02       2.701e-03          1.1102
 126       1.910e-02      -8.333e-02       1.837e-03          1.6654
 127       4.567e-03      -8.333e-02       6.061e-04          3.0579
Strip 16
 128       1.585e-01      -5.000e-02       5.021e-05          0.1177
 129       1.496e-01      -5.000e-02       3.627e-04          0.2441
 130       1.301e-01      -5.000e-02       1.094e-03          0.4115
 131       1.030e-01      -5.000e-02       2.057e-03          0.6164
 132       7.235e-02      -5.000e-02       2.773e-03          0.8312
 133       4.290e-02      -5.000e-02       2.701e-03          1.1171
 134       1.910e-02      -5.000e-02       1.837e-03          1.6761
 135       4.567e-03      -5.000e-02       6.061e-04          3.0825
Strip 17
 136       1.585e-01      -1.667e-02       5.021e-05          0.1183
 137       1.496e-01      -1.667e-02       3.627e-04          0.2451
 138       1.301e-01      -1.667e-02       1.094e-03          0.4130
 139       1.030e-01      -1.667e-02       2.057e-03          0.6184
 140       7.235e-02      -1.667e-02       2.773e-03          0.8338
 141       4.290e-02      -1.667e-02       2.701e-03          1.1205
 142       1.910e-02      -1.667e-02       1.837e-03          1.6814
 143       4.567e-03      -1.667e-02       6.061e-04          3.0946
Strip 18
 144       1.585e-01       1.667e-02       5.021e-05          0.1183
 145       1.496e-01       1.667e-02       3.627e-04          0.2451
 146       1.301e-01       1.667e-02       1.094e-03          0.4130
 147       1.030e-01       1.667e-02       2.057e-03          0.6184
 148       7.235e-02       1.667e-02       2.773e-03          0.8338
 149       4.290e-02       1.667e-02       2.701e-03          1.1205
 150       1.910e-02       1.667e-02       1.837e-03          1.6814
 151       4.567e-03       1.667e-02       6.061e-04          3.0946
Strip 19
 152       1.585e-01       5.000e-02       5.021e-05          0.1177
 153       1.496e-01       5.000e-02       3.627e-04          0.2441
 154       1.301e-01       5.000e-02       1.094e-03          0.4115
 155       1.030e-01       5.000e-02       2.057e-03          0.6164
 156       7.235e-02       5.000e-02       2.773e-03          0.8312
 157       4.290e-02       5.000e-02       2.701e-03          1.1171
 158       1.910e-02       5.000e-02       1.837e-03          1.6761
 159       4.567e-03       5.000e-02       6.061e-04          3.0825
Strip 20
 160       1.585e-01       8.333e-02       5.021e-05          0.1166
 161       1.496e-01       8.333e-02       3.627e-04          0.2421
 162       1.301e-01       8.333e-02       1.094e-03          0.4085
 163       1.030e-01       8.333e-02       2.057e-03          0.6123
 164       7.235e-02       8.333e-02       2.773e-03          0.8260
 165       4.290e-02       8.333e-02       2.701e-03          1.1102
 166       1.910e-02       8.333e-02       1.837e-03          1.6654
 167       4.567e-03       8.333e-02       6.061e-04          3.0579
Strip 21
 168       1.585e-01       1.167e-01       5.021e-05          0.1147
 169       1.496e-01       1.167e-01       3.627e-04          0.2388
 170       1.301e-01       1.167e-01       1.094e-03          0.4037
 171       1.030e-01       1.167e-01       2.057e-03          0.6059
 172       7.235e-02       1.167e-01       2.773e-03          0.8177
 173       4.290e-02       1.167e-01       2.701e-03          1.0993
 174       1.910e-02       1.167e-01       1.837e-03          1.6488
 175       4.567e-03       1.167e-01       6.061e-04          3.0196
Strip 22
 176       1.585e-01       1.500e-01       5.021e-05          0.1122
 177       1.496e-01       1.500e-01       3.627e-04          0.2343
 178       1.301e-01       1.500e-01       1.094e-03          0.3969
 179       1.030e-01       1.500e-01       2.057e-03          0.5968
 180       7.235e-02       1.500e-01       2.773e-03          0.8060
 181       4.290e-02       1.500e-01       2.701e-03          1.0839
 182       1.910e-02       1.500e-01       1.837e-03          1.6253
 183       4.567e-03       1.500e-01       6.061e-04          2.9657
Strip 23
 184       1.585e-01       1.833e-01       5.021e-05          0.1086
 185       1.496e-01       1.833e-01       3.627e-04          0.2281
 186       1.301e-01       1.833e-01       1.094e-03          0.3876
 187       1.030e-01       1.833e-01       2.057e-03          0.5843
 188       7.235e-02       1.833e-01       2.773e-03          0.7900
 189       4.290e-02       1.833e-01       2.701e-03          1.0631
 190       1.910e-02       1.833e-01       1.837e-03          1.5938
 191       4.567e-03       1.833e-01       6.061e-04          2.8937
Strip 24
 192       1.585e-01       2.167e-01       5.021e-05          0.1040
 193       1.496e-01       2.167e-01       3.627e-04          0.2198
 194       1.301e-01       2.167e-01       1.094e-03          0.3752
 195       1.030e-01       2.167e-01       2.057e-03          0.5676
 196       7.235e-02       2.167e-01       2.773e-03          0.7688
 197       4.290e-02       2.167e-01       2.701e-03          1.0355
 198       1.910e-02       2.167e-01       1.837e-03          1.5523
 199       4.567e-03       2.167e-01       6.061e-04          2.7992
Strip 25
 200       1.585e-01       2.500e-01       5.021e-05          0.0978
 201       1.496e-01       2.500e-01       3.627e-04          0.2089
 202       1.301e-01       2.500e-01       1.094e-03          0.3587
 203       1.030e-01       2.500e-01       2.057e-03          0.5454
 204       7.235e-02       2.500e-01       2.773e-03          0.7404
 205       4.290e-02       2.500e-01       2.701e-03          0.9990
 206       1.910e-02       2.500e-01       1.837e-03          1.4980
 207       4.567e-03       2.500e-01       6.061e-04          2.6764
Strip 26
 208       1.585e-01       2.833e-01       5.021e-05          0.0897
 209       1.496e-01       2.833e-01       3.627e-04          0.1944
 210       1.301e-01       2.833e-01       1.094e-03          0.3367
 211       1.030e-01       2.833e-01       2.057e-03          0.5154
 212       7.235e-02       2.833e-01       2.773e-03          0.7022
 213       4.290e-02       2.833e-01       2.701e-03          0.9503
 214       1.910e-02       2.833e-01       1.837e-03          1.4264
 215       4.567e-03       2.833e-01       6.061e-04          2.5159
Strip 27
 216       1.585e-01       3.167e-01       5.021e-05          0.0790
 217       1.496e-01       3.167e-01       3.627e-04          0.1751
 218       1.301e-01       3.167e-01       1.094e-03          0.3069
 219       1.030e-01       3.167e-01       2.057e-03          0.4742
 220       7.235e-02       3.167e-01       2.773e-03          0.6495
 221       4.290e-02       3.167e-01       2.701e-03          0.8837
 222       1.910e-02       3.167e-01       1.837e-03          1.3302
 223       4.567e-03       3.167e-01       6.061e-04          2.3027
Strip 28
 224       1.585e-01       3.500e-01       5.021e-05          0.0648
 225       1.496e-01       3.500e-01       3.627e-04          0.1491
 226       1.301e-01       3.500e-01       1.094e-03          0.2658
 227       1.030e-01       3.500e-01       2.057e-03          0.4162
 228       7.235e-02       3.500e-01       2.773e-03          0.5740
 229       4.290e-02       3.500e-01       2.701e-03          0.7885
 230       1.910e-02       3.500e-01       1.837e-03          1.1957
 231       4.567e-03       3.500e-01       6.061e-04          2.0094
Strip 29
 232       1.585e-01       3.833e-01       5.021e-05          0.0460
 233       1.496e-01       3.833e-01       3.627e-04          0.1140
 234       1.301e-01       3.833e-01       1.094e-03          0.2081
 235       1.030e-01       3.833e-01       2.057e-03          0.3311
 236       7.235e-02       3.833e-01       2.773e-03          0.4602
 237       4.290e-02       3.833e-01       2.701e-03          0.6431
 238       1.910e-02       3.833e-01       1.837e-03          0.9936
 239       4.567e-03       3.833e-01       6.061e-04          1.5777
Strip 30
 240       1.585e-01       4.022e-01       5.012e-05          0.0209
 241       1.496e-01       4.022e-01       3.620e-04          0.0830
 242       1.301e-01       4.022e-01       1.092e-03          0.1629
 243       1.031e-01       4.022e-01       2.053e-03          0.2661
 244       7.251e-02       4.022e-01       2.768e-03          0.3686
 245       4.311e-02       4.022e-01       2.696e-03          0.5142
 246       1.935e-02       4.022e-01       1.834e-03          0.8158
 247       4.849e-03       4.022e-01       6.050e-04          1.2017
Strip 31
 248       1.585e-01       4.064e-01       4.977e-05          0.0366
 249       1.497e-01       4.064e-01       3.595e-04          0.0838
 250       1.303e-01       4.064e-01       1.084e-03          0.1390
 251       1.035e-01       4.064e-01       2.039e-03          0.2165
 252       7.312e-02       4.064e-01       2.748e-03          0.3096
 253       4.394e-02       4.064e-01       2.677e-03          0.4401
 254       2.035e-02       4.064e-01       1.821e-03          0.7073
 255       5.947e-03       4.064e-01       6.007e-04          1.0298
Strip 32
 256       1.585e-01       4.102e-01       4.908e-05          0.0477
 257       1.498e-01       4.102e-01       3.545e-04          0.0805
 258       1.308e-01       4.102e-01       1.069e-03          0.1146
 259       1.042e-01       4.102e-01       2.010e-03          0.1695
 260       7.432e-02       4.102e-01       2.711e-03          0.2549
 261       4.554e-02       4.102e-01       2.640e-03          0.3697
 262       2.227e-02       4.102e-01       1.795e-03          0.5995
 263       8.069e-03       4.102e-01       5.924e-04          0.9099
Strip 33
 264       1.585e-01       4.133e-01       4.811e-05          0.0612
 265       1.500e-01       4.133e-01       3.475e-04          0.0753
 266       1.313e-01       4.133e-01       1.048e-03          0.0919
 267       1.053e-01       4.133e-01       1.971e-03          0.1230
 268       7.602e-02       4.133e-01       2.657e-03          0.2017
 269       4.780e-02       4.133e-01       2.588e-03          0.3023
 270       2.500e-02       4.133e-01       1.760e-03          0.4830
 271       1.108e-02       4.133e-01       5.807e-04          0.7977
Strip 34
 272       1.586e-01       4.155e-01       4.692e-05          0.0768
 273       1.503e-01       4.155e-01       3.389e-04          0.0717
 274       1.320e-01       4.155e-01       1.022e-03          0.0822
 275       1.067e-01       4.155e-01       1.922e-03          0.0812
 276       7.809e-02       4.155e-01       2.591e-03          0.1508
 277       5.057e-02       4.155e-01       2.524e-03          0.2430
 278       2.833e-02       4.155e-01       1.716e-03          0.3624
 279       1.476e-02       4.155e-01       5.664e-04          0.6441
Strip 35
 280       1.586e-01       4.166e-01       4.560e-05          0.2246
 281       1.505e-01       4.166e-01       3.293e-04          0.1868
 282       1.328e-01       4.166e-01       9.931e-04          0.2242
 283       1.082e-01       4.166e-01       1.868e-03          0.1070
 284       8.041e-02       4.166e-01       2.518e-03          0.1102
 285       5.367e-02       4.166e-01       2.452e-03          0.1974
 286       3.205e-02       4.166e-01       1.668e-03          0.2165
 287       1.886e-02       4.166e-01       5.504e-04          0.2469
Strip 36
 288       0.000e+00       0.000e+00       0.000e+00          0.0000
 289       0.000e+00       0.000e+00       0.000e+00          0.0000
 290       0.000e+00       0.000e+00       0.000e+00          0.0000
 291       0.000e+00       0.000e+00       0.000e+00          0.0000
 292       0.000e+00       0.000e+00       0.000e+00          0.0000
 293       0.000e+00       0.000e+00       0.000e+00          0.0000
 294       0.000e+00       0.000e+00       0.000e+00          0.0000
 295       0.000e+00       0.000e+00       0.000e+00          0.0000










