XFLR5 v6.02 Beta

Rounded tunnel shape
T1-18.0 m/s-VLM1-x0.000mm
QInf  =   18.000000 m/s
Alpha =    6.000000
Beta  =    0.000°
Phi   =    0.000°
Ctrl  =    0.000
CL    =    0.526218
Cy    =    0.000000
Cd    =    0.027329     ICd   =    0.016642     PCd   =    0.010687
Cl   =   1.239e-17
Cm   =    -0.16152
ICn   =   -0.000000     PCn   =    0.000000 
XCP   =    0.049135     YCP   =    0.000000 
XNP   =    0.000000
Bend. =    1.189440

Rounded tunnel shape
  y-span        Chord      Ai         Cl        PCd          ICd        CmGeom      CmAirf      XTrtop    XTrBot      XCP       BM
   -0.4176     0.1453    -5.919    0.140934    0.012032    0.028471   -0.060282   -0.022651     0.8520    0.9574    0.4602    0.0000
   -0.4162     0.1495    -5.865    0.135198    0.011817    0.008322   -0.048797   -0.009410     0.8478    0.9556    0.3252    0.0000
   -0.4139     0.1533    -5.806    0.162433    0.011585    0.009513   -0.056595   -0.010044     0.8389    0.9613    0.3120    0.0000
   -0.4107     0.1564    -5.770    0.196090    0.011380    0.011152   -0.065006   -0.011753     0.8295    0.9684    0.3089    0.0001
   -0.4069     0.1586    -5.741    0.231706    0.011207    0.012494   -0.073547   -0.013569     0.8202    0.9756    0.3072    0.0003
   -0.4026     0.1597    -5.695    0.270304    0.011087    0.012224   -0.082925   -0.014843     0.8120    0.9835    0.3035    0.0006
   -0.3833     0.1600    -5.355    0.337937    0.010785    0.016062   -0.103755   -0.018923     0.7967    0.9958    0.3044    0.0027
   -0.3500     0.1600    -4.812    0.419349    0.010583    0.017859   -0.128853   -0.023697     0.7627    1.0000    0.3049    0.0184
   -0.3167     0.1600    -4.363    0.474230    0.010534    0.018271   -0.145777   -0.026961     0.7355    1.0000    0.3053    0.0490
   -0.2833     0.1600    -4.001    0.513330    0.010566    0.018106   -0.157735   -0.029211     0.7154    1.0000    0.3054    0.0964
   -0.2500     0.1600    -3.710    0.542173    0.010598    0.017715   -0.166462   -0.030791     0.6998    1.0000    0.3054    0.1619
   -0.2167     0.1600    -3.479    0.563870    0.010614    0.017260   -0.172957   -0.031918     0.6874    1.0000    0.3052    0.2467
   -0.1833     0.1600    -3.296    0.580320    0.010635    0.016818   -0.177835   -0.032731     0.6779    1.0000    0.3050    0.3513
   -0.1500     0.1600    -3.153    0.592737    0.010658    0.016428   -0.181488   -0.033319     0.6705    1.0000    0.3049    0.4765
   -0.1167     0.1600    -3.045    0.601927    0.010674    0.016107   -0.184174   -0.033738     0.6650    1.0000    0.3047    0.6226
   -0.0833     0.1600    -2.968    0.608426    0.010686    0.015863   -0.186064   -0.034026     0.6611    1.0000    0.3046    0.7900
   -0.0500     0.1600    -2.918    0.612583    0.010694    0.015700   -0.187269   -0.034206     0.6587    1.0000    0.3045    0.9789
   -0.0167     0.1600    -2.893    0.614612    0.010697    0.015618   -0.187856   -0.034293     0.6574    1.0000    0.3045    1.1894
    0.0167     0.1600    -2.893    0.614612    0.010697    0.015618   -0.187856   -0.034293     0.6574    1.0000    0.3045    1.1894
    0.0500     0.1600    -2.918    0.612583    0.010694    0.015700   -0.187269   -0.034206     0.6587    1.0000    0.3045    0.9789
    0.0833     0.1600    -2.968    0.608426    0.010686    0.015863   -0.186064   -0.034026     0.6611    1.0000    0.3046    0.7900
    0.1167     0.1600    -3.045    0.601927    0.010674    0.016107   -0.184174   -0.033738     0.6650    1.0000    0.3047    0.6226
    0.1500     0.1600    -3.153    0.592737    0.010658    0.016428   -0.181488   -0.033319     0.6705    1.0000    0.3049    0.4765
    0.1833     0.1600    -3.296    0.580320    0.010635    0.016818   -0.177835   -0.032731     0.6779    1.0000    0.3050    0.3513
    0.2167     0.1600    -3.479    0.563870    0.010614    0.017260   -0.172957   -0.031918     0.6874    1.0000    0.3052    0.2467
    0.2500     0.1600    -3.710    0.542173    0.010598    0.017715   -0.166462   -0.030791     0.6998    1.0000    0.3054    0.1619
    0.2833     0.1600    -4.001    0.513330    0.010566    0.018106   -0.157735   -0.029211     0.7154    1.0000    0.3054    0.0964
    0.3167     0.1600    -4.363    0.474230    0.010534    0.018271   -0.145777   -0.026961     0.7355    1.0000    0.3053    0.0490
    0.3500     0.1600    -4.812    0.419349    0.010583    0.017859   -0.128853   -0.023697     0.7627    1.0000    0.3049    0.0184
    0.3833     0.1600    -5.355    0.337937    0.010785    0.016062   -0.103755   -0.018923     0.7967    0.9958    0.3044    0.0027
    0.4026     0.1597    -5.695    0.270304    0.011087    0.012224   -0.082925   -0.014843     0.8120    0.9835    0.3035    0.0006
    0.4069     0.1586    -5.741    0.231706    0.011207    0.012494   -0.073547   -0.013569     0.8202    0.9756    0.3072    0.0003
    0.4107     0.1564    -5.770    0.196090    0.011380    0.011152   -0.065006   -0.011753     0.8295    0.9684    0.3089    0.0001
    0.4139     0.1533    -5.806    0.162433    0.011585    0.009513   -0.056595   -0.010044     0.8389    0.9613    0.3120    0.0000
    0.4162     0.1495    -5.865    0.135198    0.011817    0.008322   -0.048797   -0.009410     0.8478    0.9556    0.3252    0.0000



Wing Cp Coefficients
 Panel     CtrlPt.x        CtrlPt.y        CtrlPt.z             Cp
Rounded tunnel shapeCp Coefficients
Strip 1
   8       1.586e-01      -4.155e-01       4.692e-05          0.0580
   9       1.503e-01      -4.155e-01       3.389e-04          0.0654
  10       1.320e-01      -4.155e-01       1.022e-03          0.0760
  11       1.067e-01      -4.155e-01       1.922e-03          0.0726
  12       7.809e-02      -4.155e-01       2.591e-03          0.1198
  13       5.057e-02      -4.155e-01       2.524e-03          0.1766
  14       2.833e-02      -4.155e-01       1.716e-03          0.2396
  15       1.476e-02      -4.155e-01       5.664e-04          0.2813
Strip 2
  16       1.585e-01      -4.133e-01       4.811e-05          0.0465
  17       1.500e-01      -4.133e-01       3.475e-04          0.0665
  18       1.313e-01      -4.133e-01       1.048e-03          0.0836
  19       1.053e-01      -4.133e-01       1.971e-03          0.1071
  20       7.602e-02      -4.133e-01       2.657e-03          0.1619
  21       4.780e-02      -4.133e-01       2.588e-03          0.2254
  22       2.500e-02      -4.133e-01       1.760e-03          0.3291
  23       1.108e-02      -4.133e-01       5.807e-04          0.3300
Strip 3
  24       1.585e-01      -4.102e-01       4.908e-05          0.0353
  25       1.498e-01      -4.102e-01       3.545e-04          0.0679
  26       1.308e-01      -4.102e-01       1.069e-03          0.0999
  27       1.042e-01      -4.102e-01       2.010e-03          0.1445
  28       7.432e-02      -4.102e-01       2.711e-03          0.2051
  29       4.554e-02      -4.102e-01       2.640e-03          0.2779
  30       2.227e-02      -4.102e-01       1.795e-03          0.4093
  31       8.069e-03      -4.102e-01       5.924e-04          0.3665
Strip 4
  32       1.585e-01      -4.064e-01       4.977e-05          0.0261
  33       1.497e-01      -4.064e-01       3.595e-04          0.0687
  34       1.303e-01      -4.064e-01       1.084e-03          0.1176
  35       1.035e-01      -4.064e-01       2.039e-03          0.1819
  36       7.312e-02      -4.064e-01       2.748e-03          0.2488
  37       4.394e-02      -4.064e-01       2.677e-03          0.3311
  38       2.035e-02      -4.064e-01       1.821e-03          0.4816
  39       5.947e-03      -4.064e-01       6.007e-04          0.4180
Strip 5
  40       1.585e-01      -4.022e-01       5.012e-05          0.0137
  41       1.496e-01      -4.022e-01       3.620e-04          0.0667
  42       1.301e-01      -4.022e-01       1.092e-03          0.1349
  43       1.031e-01      -4.022e-01       2.053e-03          0.2209
  44       7.251e-02      -4.022e-01       2.768e-03          0.2952
  45       4.311e-02      -4.022e-01       2.696e-03          0.3862
  46       1.935e-02      -4.022e-01       1.834e-03          0.5537
  47       4.849e-03      -4.022e-01       6.050e-04          0.5091
Strip 6
  48       1.585e-01      -3.833e-01       5.021e-05          0.0321
  49       1.496e-01      -3.833e-01       3.627e-04          0.0898
  50       1.301e-01      -3.833e-01       1.094e-03          0.1704
  51       1.030e-01      -3.833e-01       2.057e-03          0.2734
  52       7.235e-02      -3.833e-01       2.773e-03          0.3665
  53       4.290e-02      -3.833e-01       2.701e-03          0.4796
  54       1.910e-02      -3.833e-01       1.837e-03          0.6713
  55       4.567e-03      -3.833e-01       6.061e-04          0.7292
Strip 7
  56       1.585e-01      -3.500e-01       5.021e-05          0.0464
  57       1.496e-01      -3.500e-01       3.627e-04          0.1164
  58       1.301e-01      -3.500e-01       1.094e-03          0.2145
  59       1.030e-01      -3.500e-01       2.057e-03          0.3380
  60       7.235e-02      -3.500e-01       2.773e-03          0.4504
  61       4.290e-02      -3.500e-01       2.701e-03          0.5818
  62       1.910e-02      -3.500e-01       1.837e-03          0.8076
  63       4.567e-03      -3.500e-01       6.061e-04          1.0154
Strip 8
  64       1.585e-01      -3.167e-01       5.021e-05          0.0570
  65       1.496e-01      -3.167e-01       3.627e-04          0.1359
  66       1.301e-01      -3.167e-01       1.094e-03          0.2451
  67       1.030e-01      -3.167e-01       2.057e-03          0.3808
  68       7.235e-02      -3.167e-01       2.773e-03          0.5048
  69       4.290e-02      -3.167e-01       2.701e-03          0.6485
  70       1.910e-02      -3.167e-01       1.837e-03          0.9004
  71       4.567e-03      -3.167e-01       6.061e-04          1.2156
Strip 9
  72       1.585e-01      -2.833e-01       5.021e-05          0.0649
  73       1.496e-01      -2.833e-01       3.627e-04          0.1501
  74       1.301e-01      -2.833e-01       1.094e-03          0.2670
  75       1.030e-01      -2.833e-01       2.057e-03          0.4107
  76       7.235e-02      -2.833e-01       2.773e-03          0.5425
  77       4.290e-02      -2.833e-01       2.701e-03          0.6954
  78       1.910e-02      -2.833e-01       1.837e-03          0.9674
  79       4.567e-03      -2.833e-01       6.061e-04          1.3630
Strip 10
  80       1.585e-01      -2.500e-01       5.021e-05          0.0708
  81       1.496e-01      -2.500e-01       3.627e-04          0.1606
  82       1.301e-01      -2.500e-01       1.094e-03          0.2830
  83       1.030e-01      -2.500e-01       2.057e-03          0.4323
  84       7.235e-02      -2.500e-01       2.773e-03          0.5697
  85       4.290e-02      -2.500e-01       2.701e-03          0.7298
  86       1.910e-02      -2.500e-01       1.837e-03          1.0175
  87       4.567e-03      -2.500e-01       6.061e-04          1.4747
Strip 11
  88       1.585e-01      -2.167e-01       5.021e-05          0.0753
  89       1.496e-01      -2.167e-01       3.627e-04          0.1685
  90       1.301e-01      -2.167e-01       1.094e-03          0.2949
  91       1.030e-01      -2.167e-01       2.057e-03          0.4483
  92       7.235e-02      -2.167e-01       2.773e-03          0.5899
  93       4.290e-02      -2.167e-01       2.701e-03          0.7556
  94       1.910e-02      -2.167e-01       1.837e-03          1.0557
  95       4.567e-03      -2.167e-01       6.061e-04          1.5604
Strip 12
  96       1.585e-01      -1.833e-01       5.021e-05          0.0786
  97       1.496e-01      -1.833e-01       3.627e-04          0.1745
  98       1.301e-01      -1.833e-01       1.094e-03          0.3038
  99       1.030e-01      -1.833e-01       2.057e-03          0.4602
 100       7.235e-02      -1.833e-01       2.773e-03          0.6050
 101       4.290e-02      -1.833e-01       2.701e-03          0.7751
 102       1.910e-02      -1.833e-01       1.837e-03          1.0850
 103       4.567e-03      -1.833e-01       6.061e-04          1.6265
Strip 13
 104       1.585e-01      -1.500e-01       5.021e-05          0.0811
 105       1.496e-01      -1.500e-01       3.627e-04          0.1789
 106       1.301e-01      -1.500e-01       1.094e-03          0.3104
 107       1.030e-01      -1.500e-01       2.057e-03          0.4691
 108       7.235e-02      -1.500e-01       2.773e-03          0.6163
 109       4.290e-02      -1.500e-01       2.701e-03          0.7898
 110       1.910e-02      -1.500e-01       1.837e-03          1.1072
 111       4.567e-03      -1.500e-01       6.061e-04          1.6770
Strip 14
 112       1.585e-01      -1.167e-01       5.021e-05          0.0830
 113       1.496e-01      -1.167e-01       3.627e-04          0.1822
 114       1.301e-01      -1.167e-01       1.094e-03          0.3153
 115       1.030e-01      -1.167e-01       2.057e-03          0.4756
 116       7.235e-02      -1.167e-01       2.773e-03          0.6247
 117       4.290e-02      -1.167e-01       2.701e-03          0.8007
 118       1.910e-02      -1.167e-01       1.837e-03          1.1238
 119       4.567e-03      -1.167e-01       6.061e-04          1.7147
Strip 15
 120       1.585e-01      -8.333e-02       5.021e-05          0.0843
 121       1.496e-01      -8.333e-02       3.627e-04          0.1845
 122       1.301e-01      -8.333e-02       1.094e-03          0.3187
 123       1.030e-01      -8.333e-02       2.057e-03          0.4802
 124       7.235e-02      -8.333e-02       2.773e-03          0.6305
 125       4.290e-02      -8.333e-02       2.701e-03          0.8084
 126       1.910e-02      -8.333e-02       1.837e-03          1.1355
 127       4.567e-03      -8.333e-02       6.061e-04          1.7416
Strip 16
 128       1.585e-01      -5.000e-02       5.021e-05          0.0851
 129       1.496e-01      -5.000e-02       3.627e-04          0.1860
 130       1.301e-01      -5.000e-02       1.094e-03          0.3209
 131       1.030e-01      -5.000e-02       2.057e-03          0.4831
 132       7.235e-02      -5.000e-02       2.773e-03          0.6343
 133       4.290e-02      -5.000e-02       2.701e-03          0.8134
 134       1.910e-02      -5.000e-02       1.837e-03          1.1431
 135       4.567e-03      -5.000e-02       6.061e-04          1.7589
Strip 17
 136       1.585e-01      -1.667e-02       5.021e-05          0.0855
 137       1.496e-01      -1.667e-02       3.627e-04          0.1867
 138       1.301e-01      -1.667e-02       1.094e-03          0.3219
 139       1.030e-01      -1.667e-02       2.057e-03          0.4845
 140       7.235e-02      -1.667e-02       2.773e-03          0.6361
 141       4.290e-02      -1.667e-02       2.701e-03          0.8158
 142       1.910e-02      -1.667e-02       1.837e-03          1.1468
 143       4.567e-03      -1.667e-02       6.061e-04          1.7674
Strip 18
 144       1.585e-01       1.667e-02       5.021e-05          0.0855
 145       1.496e-01       1.667e-02       3.627e-04          0.1867
 146       1.301e-01       1.667e-02       1.094e-03          0.3219
 147       1.030e-01       1.667e-02       2.057e-03          0.4845
 148       7.235e-02       1.667e-02       2.773e-03          0.6361
 149       4.290e-02       1.667e-02       2.701e-03          0.8158
 150       1.910e-02       1.667e-02       1.837e-03          1.1468
 151       4.567e-03       1.667e-02       6.061e-04          1.7674
Strip 19
 152       1.585e-01       5.000e-02       5.021e-05          0.0851
 153       1.496e-01       5.000e-02       3.627e-04          0.1860
 154       1.301e-01       5.000e-02       1.094e-03          0.3209
 155       1.030e-01       5.000e-02       2.057e-03          0.4831
 156       7.235e-02       5.000e-02       2.773e-03          0.6343
 157       4.290e-02       5.000e-02       2.701e-03          0.8134
 158       1.910e-02       5.000e-02       1.837e-03          1.1431
 159       4.567e-03       5.000e-02       6.061e-04          1.7589
Strip 20
 160       1.585e-01       8.333e-02       5.021e-05          0.0843
 161       1.496e-01       8.333e-02       3.627e-04          0.1845
 162       1.301e-01       8.333e-02       1.094e-03          0.3187
 163       1.030e-01       8.333e-02       2.057e-03          0.4802
 164       7.235e-02       8.333e-02       2.773e-03          0.6305
 165       4.290e-02       8.333e-02       2.701e-03          0.8084
 166       1.910e-02       8.333e-02       1.837e-03          1.1355
 167       4.567e-03       8.333e-02       6.061e-04          1.7416
Strip 21
 168       1.585e-01       1.167e-01       5.021e-05          0.0830
 169       1.496e-01       1.167e-01       3.627e-04          0.1822
 170       1.301e-01       1.167e-01       1.094e-03          0.3153
 171       1.030e-01       1.167e-01       2.057e-03          0.4756
 172       7.235e-02       1.167e-01       2.773e-03          0.6247
 173       4.290e-02       1.167e-01       2.701e-03          0.8007
 174       1.910e-02       1.167e-01       1.837e-03          1.1238
 175       4.567e-03       1.167e-01       6.061e-04          1.7147
Strip 22
 176       1.585e-01       1.500e-01       5.021e-05          0.0811
 177       1.496e-01       1.500e-01       3.627e-04          0.1789
 178       1.301e-01       1.500e-01       1.094e-03          0.3104
 179       1.030e-01       1.500e-01       2.057e-03          0.4691
 180       7.235e-02       1.500e-01       2.773e-03          0.6163
 181       4.290e-02       1.500e-01       2.701e-03          0.7898
 182       1.910e-02       1.500e-01       1.837e-03          1.1072
 183       4.567e-03       1.500e-01       6.061e-04          1.6770
Strip 23
 184       1.585e-01       1.833e-01       5.021e-05          0.0786
 185       1.496e-01       1.833e-01       3.627e-04          0.1745
 186       1.301e-01       1.833e-01       1.094e-03          0.3038
 187       1.030e-01       1.833e-01       2.057e-03          0.4602
 188       7.235e-02       1.833e-01       2.773e-03          0.6050
 189       4.290e-02       1.833e-01       2.701e-03          0.7751
 190       1.910e-02       1.833e-01       1.837e-03          1.0850
 191       4.567e-03       1.833e-01       6.061e-04          1.6265
Strip 24
 192       1.585e-01       2.167e-01       5.021e-05          0.0753
 193       1.496e-01       2.167e-01       3.627e-04          0.1685
 194       1.301e-01       2.167e-01       1.094e-03          0.2949
 195       1.030e-01       2.167e-01       2.057e-03          0.4483
 196       7.235e-02       2.167e-01       2.773e-03          0.5899
 197       4.290e-02       2.167e-01       2.701e-03          0.7556
 198       1.910e-02       2.167e-01       1.837e-03          1.0557
 199       4.567e-03       2.167e-01       6.061e-04          1.5604
Strip 25
 200       1.585e-01       2.500e-01       5.021e-05          0.0708
 201       1.496e-01       2.500e-01       3.627e-04          0.1606
 202       1.301e-01       2.500e-01       1.094e-03          0.2830
 203       1.030e-01       2.500e-01       2.057e-03          0.4323
 204       7.235e-02       2.500e-01       2.773e-03          0.5697
 205       4.290e-02       2.500e-01       2.701e-03          0.7298
 206       1.910e-02       2.500e-01       1.837e-03          1.0175
 207       4.567e-03       2.500e-01       6.061e-04          1.4747
Strip 26
 208       1.585e-01       2.833e-01       5.021e-05          0.0649
 209       1.496e-01       2.833e-01       3.627e-04          0.1501
 210       1.301e-01       2.833e-01       1.094e-03          0.2670
 211       1.030e-01       2.833e-01       2.057e-03          0.4107
 212       7.235e-02       2.833e-01       2.773e-03          0.5425
 213       4.290e-02       2.833e-01       2.701e-03          0.6954
 214       1.910e-02       2.833e-01       1.837e-03          0.9674
 215       4.567e-03       2.833e-01       6.061e-04          1.3630
Strip 27
 216       1.585e-01       3.167e-01       5.021e-05          0.0570
 217       1.496e-01       3.167e-01       3.627e-04          0.1359
 218       1.301e-01       3.167e-01       1.094e-03          0.2451
 219       1.030e-01       3.167e-01       2.057e-03          0.3808
 220       7.235e-02       3.167e-01       2.773e-03          0.5048
 221       4.290e-02       3.167e-01       2.701e-03          0.6485
 222       1.910e-02       3.167e-01       1.837e-03          0.9004
 223       4.567e-03       3.167e-01       6.061e-04          1.2156
Strip 28
 224       1.585e-01       3.500e-01       5.021e-05          0.0464
 225       1.496e-01       3.500e-01       3.627e-04          0.1164
 226       1.301e-01       3.500e-01       1.094e-03          0.2145
 227       1.030e-01       3.500e-01       2.057e-03          0.3380
 228       7.235e-02       3.500e-01       2.773e-03          0.4504
 229       4.290e-02       3.500e-01       2.701e-03          0.5818
 230       1.910e-02       3.500e-01       1.837e-03          0.8076
 231       4.567e-03       3.500e-01       6.061e-04          1.0154
Strip 29
 232       1.585e-01       3.833e-01       5.021e-05          0.0321
 233       1.496e-01       3.833e-01       3.627e-04          0.0898
 234       1.301e-01       3.833e-01       1.094e-03          0.1704
 235       1.030e-01       3.833e-01       2.057e-03          0.2734
 236       7.235e-02       3.833e-01       2.773e-03          0.3665
 237       4.290e-02       3.833e-01       2.701e-03          0.4796
 238       1.910e-02       3.833e-01       1.837e-03          0.6713
 239       4.567e-03       3.833e-01       6.061e-04          0.7292
Strip 30
 240       1.585e-01       4.022e-01       5.012e-05          0.0137
 241       1.496e-01       4.022e-01       3.620e-04          0.0667
 242       1.301e-01       4.022e-01       1.092e-03          0.1349
 243       1.031e-01       4.022e-01       2.053e-03          0.2209
 244       7.251e-02       4.022e-01       2.768e-03          0.2952
 245       4.311e-02       4.022e-01       2.696e-03          0.3862
 246       1.935e-02       4.022e-01       1.834e-03          0.5537
 247       4.849e-03       4.022e-01       6.050e-04          0.5091
Strip 31
 248       1.585e-01       4.064e-01       4.977e-05          0.0261
 249       1.497e-01       4.064e-01       3.595e-04          0.0687
 250       1.303e-01       4.064e-01       1.084e-03          0.1176
 251       1.035e-01       4.064e-01       2.039e-03          0.1819
 252       7.312e-02       4.064e-01       2.748e-03          0.2488
 253       4.394e-02       4.064e-01       2.677e-03          0.3311
 254       2.035e-02       4.064e-01       1.821e-03          0.4816
 255       5.947e-03       4.064e-01       6.007e-04          0.4180
Strip 32
 256       1.585e-01       4.102e-01       4.908e-05          0.0353
 257       1.498e-01       4.102e-01       3.545e-04          0.0679
 258       1.308e-01       4.102e-01       1.069e-03          0.0999
 259       1.042e-01       4.102e-01       2.010e-03          0.1445
 260       7.432e-02       4.102e-01       2.711e-03          0.2051
 261       4.554e-02       4.102e-01       2.640e-03          0.2779
 262       2.227e-02       4.102e-01       1.795e-03          0.4093
 263       8.069e-03       4.102e-01       5.924e-04          0.3665
Strip 33
 264       1.585e-01       4.133e-01       4.811e-05          0.0465
 265       1.500e-01       4.133e-01       3.475e-04          0.0665
 266       1.313e-01       4.133e-01       1.048e-03          0.0836
 267       1.053e-01       4.133e-01       1.971e-03          0.1071
 268       7.602e-02       4.133e-01       2.657e-03          0.1619
 269       4.780e-02       4.133e-01       2.588e-03          0.2254
 270       2.500e-02       4.133e-01       1.760e-03          0.3291
 271       1.108e-02       4.133e-01       5.807e-04          0.3300
Strip 34
 272       1.586e-01       4.155e-01       4.692e-05          0.0580
 273       1.503e-01       4.155e-01       3.389e-04          0.0654
 274       1.320e-01       4.155e-01       1.022e-03          0.0760
 275       1.067e-01       4.155e-01       1.922e-03          0.0726
 276       7.809e-02       4.155e-01       2.591e-03          0.1198
 277       5.057e-02       4.155e-01       2.524e-03          0.1766
 278       2.833e-02       4.155e-01       1.716e-03          0.2396
 279       1.476e-02       4.155e-01       5.664e-04          0.2813
Strip 35
 280       1.586e-01       4.166e-01       4.560e-05          0.0750
 281       1.505e-01       4.166e-01       3.293e-04          0.1065
 282       1.328e-01       4.166e-01       9.931e-04          0.1678
 283       1.082e-01       4.166e-01       1.868e-03          0.0861
 284       8.041e-02       4.166e-01       2.518e-03          0.0839
 285       5.367e-02       4.166e-01       2.452e-03          0.1321
 286       3.205e-02       4.166e-01       1.668e-03          0.1249
 287       1.886e-02       4.166e-01       5.504e-04          0.1473
Strip 36
 288       0.000e+00       0.000e+00       0.000e+00          0.0000
 289       0.000e+00       0.000e+00       0.000e+00          0.0000
 290       0.000e+00       0.000e+00       0.000e+00          0.0000
 291       0.000e+00       0.000e+00       0.000e+00          0.0000
 292       0.000e+00       0.000e+00       0.000e+00          0.0000
 293       0.000e+00       0.000e+00       0.000e+00          0.0000
 294       0.000e+00       0.000e+00       0.000e+00          0.0000
 295       0.000e+00       0.000e+00       0.000e+00          0.0000










