XFLR5 v6.02 Beta

Rounded tunnel shape
T1-18.0 m/s-Panel-x0.000mm
QInf  =   18.000000 m/s
Alpha =   -3.000000
Beta  =    0.000°
Phi   =    0.000°
Ctrl  =    0.000
CL    =   -0.107197
Cy    =    0.000000
Cd    =    0.014619     ICd   =    0.000679     PCd   =    0.013940
Cl   = 9.08204e-18
Cm   = -0.000684556
ICn   =    0.000000     PCn   =    0.000000 
XCP   =   -0.002246     YCP   =   -0.000000 
XNP   =    0.000000
Bend. =    0.000000

Rounded tunnel shape
  y-span        Chord      Ai         Cl        PCd          ICd        CmGeom      CmAirf      XTrtop    XTrBot      XCP       BM
   -0.4176     0.1453     2.012   -0.009810    0.011938    0.000345   -0.034329    0.019179     0.8767    0.7845    0.1145    0.0000
   -0.4162     0.1495     0.599   -0.018940    0.011551    0.000198   -0.004935    0.001968     0.8762    0.7664    0.1376   -0.0000
   -0.4139     0.1533     0.551   -0.027187    0.011151    0.000262   -0.000369   -0.007681     0.8756    0.7596   -0.0588   -0.0000
   -0.4107     0.1564     0.503   -0.034880    0.010803    0.000307   -0.001680   -0.014640     0.8756    0.7526   -0.0638   -0.0000
   -0.4069     0.1586     0.460   -0.042405    0.010937    0.000341   -0.003313   -0.019498     0.8788    0.6589   -0.0686   -0.0000
   -0.4026     0.1597     0.427   -0.050543    0.011284    0.000377   -0.003496   -0.022160     0.8838    0.5339   -0.0559   -0.0001
   -0.3833     0.1600     0.439   -0.063380    0.011866    0.000486   -0.008558   -0.030889     0.8922    0.3491   -0.1030   -0.0005
   -0.3500     0.1600     0.436   -0.080815    0.012764    0.000615   -0.007423   -0.034377     0.8991    0.2153   -0.0757   -0.0034
   -0.3167     0.1600     0.423   -0.093273    0.013406    0.000689   -0.005079   -0.035347     0.9040    0.1197   -0.0485   -0.0092
   -0.2833     0.1600     0.405   -0.102424    0.013877    0.000724   -0.002878   -0.035588     0.9076    0.0494   -0.0282   -0.0183
   -0.2500     0.1600     0.385   -0.109278    0.014114    0.000735   -0.001056   -0.035595     0.9101    0.0236   -0.0137   -0.0311
   -0.2167     0.1600     0.367   -0.114469    0.014211    0.000734    0.000392   -0.035532     0.9118    0.0230   -0.0032   -0.0478
   -0.1833     0.1600     0.351   -0.118414    0.014285    0.000727    0.001518   -0.035457     0.9131    0.0225    0.0044   -0.0686
   -0.1500     0.1600     0.338   -0.121393    0.014340    0.000717    0.002379   -0.035389     0.9141    0.0222    0.0100   -0.0936
   -0.1167     0.1600     0.328   -0.123597    0.014382    0.000708    0.003020   -0.035335     0.9148    0.0219    0.0140   -0.1229
   -0.0833     0.1600     0.321   -0.125154    0.014411    0.000701    0.003473   -0.035295     0.9153    0.0217    0.0167   -0.1566
   -0.0500     0.1600     0.316   -0.126149    0.014429    0.000696    0.003764   -0.035269     0.9157    0.0216    0.0185   -0.1948
   -0.0167     0.1600     0.313   -0.126634    0.014438    0.000693    0.003906   -0.035257     0.9158    0.0216    0.0193   -0.2375
    0.0167     0.1600     0.313   -0.126634    0.014438    0.000693    0.003906   -0.035257     0.9158    0.0216    0.0193   -0.2375
    0.0500     0.1600     0.316   -0.126149    0.014429    0.000696    0.003764   -0.035269     0.9157    0.0216    0.0185   -0.1948
    0.0833     0.1600     0.321   -0.125154    0.014411    0.000701    0.003473   -0.035295     0.9153    0.0217    0.0167   -0.1566
    0.1167     0.1600     0.328   -0.123597    0.014382    0.000708    0.003020   -0.035335     0.9148    0.0219    0.0140   -0.1229
    0.1500     0.1600     0.338   -0.121393    0.014340    0.000717    0.002379   -0.035389     0.9141    0.0222    0.0100   -0.0936
    0.1833     0.1600     0.351   -0.118414    0.014285    0.000727    0.001518   -0.035457     0.9131    0.0225    0.0044   -0.0686
    0.2167     0.1600     0.367   -0.114469    0.014211    0.000734    0.000392   -0.035532     0.9118    0.0230   -0.0032   -0.0478
    0.2500     0.1600     0.385   -0.109278    0.014114    0.000735   -0.001056   -0.035595     0.9101    0.0236   -0.0137   -0.0311
    0.2833     0.1600     0.405   -0.102424    0.013877    0.000724   -0.002878   -0.035588     0.9076    0.0494   -0.0282   -0.0183
    0.3167     0.1600     0.423   -0.093273    0.013406    0.000689   -0.005079   -0.035347     0.9040    0.1197   -0.0485   -0.0092
    0.3500     0.1600     0.436   -0.080815    0.012764    0.000615   -0.007423   -0.034377     0.8991    0.2153   -0.0757   -0.0034
    0.3833     0.1600     0.439   -0.063380    0.011866    0.000486   -0.008558   -0.030889     0.8922    0.3491   -0.1030   -0.0005
    0.4026     0.1597     0.427   -0.050543    0.011284    0.000377   -0.003496   -0.022160     0.8838    0.5339   -0.0559   -0.0001
    0.4069     0.1586     0.460   -0.042405    0.010937    0.000341   -0.003313   -0.019498     0.8788    0.6589   -0.0686   -0.0000
    0.4107     0.1564     0.503   -0.034880    0.010803    0.000307   -0.001680   -0.014640     0.8756    0.7526   -0.0638   -0.0000
    0.4139     0.1533     0.551   -0.027187    0.011151    0.000262   -0.000369   -0.007681     0.8756    0.7596   -0.0588   -0.0000
    0.4162     0.1495     0.599   -0.018940    0.011551    0.000198   -0.004935    0.001968     0.8762    0.7664    0.1376   -0.0000
    0.4176     0.1453     2.012   -0.009810    0.011938    0.000345   -0.034329    0.019179     0.8767    0.7845    0.1145    0.0000


Wing Cp Coefficients
 Panel     CtrlPt.x        CtrlPt.y        CtrlPt.z             Cp
Rounded tunnel shapeCp Coefficients
Strip 1
   8       1.572e-01      -4.166e-01      -9.943e-05         -0.0279
   9       1.466e-01      -4.166e-01      -7.589e-04         -0.0229
  10       1.269e-01      -4.166e-01      -2.188e-03         -0.0999
  11       1.013e-01      -4.166e-01      -3.746e-03         -0.1442
  12       7.346e-02      -4.166e-01      -4.652e-03         -0.1544
  13       4.777e-02      -4.166e-01      -4.575e-03         -0.1666
  14       2.812e-02      -4.166e-01      -3.424e-03         -0.2425
  15       1.748e-02      -4.166e-01      -1.398e-03         -0.2911
  16       1.748e-02      -4.166e-01       1.978e-03         -0.7515
  17       2.812e-02      -4.166e-01       6.188e-03         -0.9576
  18       4.777e-02      -4.166e-01       9.148e-03         -0.8075
  19       7.346e-02      -4.166e-01       9.755e-03         -0.2539
  20       1.013e-01      -4.166e-01       7.893e-03         -0.0906
  21       1.269e-01      -4.166e-01       4.621e-03         -0.0543
  22       1.466e-01      -4.166e-01       1.711e-03          0.0127
  23       1.572e-01      -4.166e-01       2.818e-04          0.0029
Strip 2
  24       1.572e-01      -4.155e-01      -1.023e-04          0.0211
  25       1.462e-01      -4.155e-01      -7.810e-04          0.0123
  26       1.260e-01      -4.155e-01      -2.252e-03         -0.0309
  27       9.955e-02      -4.155e-01      -3.855e-03         -0.0832
  28       7.094e-02      -4.155e-01      -4.787e-03         -0.1233
  29       4.451e-02      -4.155e-01      -4.708e-03         -0.1735
  30       2.428e-02      -4.155e-01      -3.523e-03         -0.2813
  31       1.334e-02      -4.155e-01      -1.439e-03         -0.2767
  32       1.334e-02      -4.155e-01       2.036e-03         -0.4446
  33       2.428e-02      -4.155e-01       6.368e-03         -0.3296
  34       4.451e-02      -4.155e-01       9.414e-03         -0.2119
  35       7.094e-02      -4.155e-01       1.004e-02         -0.1435
  36       9.955e-02      -4.155e-01       8.122e-03         -0.1024
  37       1.260e-01      -4.155e-01       4.755e-03         -0.0411
  38       1.462e-01      -4.155e-01       1.761e-03          0.0359
  39       1.572e-01      -4.155e-01       2.900e-04          0.0632
Strip 3
  40       1.571e-01      -4.133e-01      -1.049e-04          0.0830
  41       1.459e-01      -4.133e-01      -8.008e-04          0.0386
  42       1.251e-01      -4.133e-01      -2.309e-03         -0.0283
  43       9.802e-02      -4.133e-01      -3.953e-03         -0.0854
  44       6.868e-02      -4.133e-01      -4.908e-03         -0.1273
  45       4.158e-02      -4.133e-01      -4.828e-03         -0.1826
  46       2.084e-02      -4.133e-01      -3.613e-03         -0.3036
  47       9.617e-03      -4.133e-01      -1.475e-03         -0.3937
  48       9.617e-03      -4.133e-01       2.087e-03         -0.0176
  49       2.084e-02      -4.133e-01       6.530e-03         -0.1380
  50       4.158e-02      -4.133e-01       9.652e-03         -0.1655
  51       6.868e-02      -4.133e-01       1.029e-02         -0.1549
  52       9.802e-02      -4.133e-01       8.328e-03         -0.1131
  53       1.251e-01      -4.133e-01       4.876e-03         -0.0363
  54       1.459e-01      -4.133e-01       1.806e-03          0.0536
  55       1.571e-01      -4.133e-01       2.974e-04          0.1033
Strip 4
  56       1.570e-01      -4.102e-01      -1.070e-04          0.1086
  57       1.456e-01      -4.102e-01      -8.169e-04          0.0579
  58       1.244e-01      -4.102e-01      -2.356e-03         -0.0221
  59       9.676e-02      -4.102e-01      -4.033e-03         -0.0867
  60       6.684e-02      -4.102e-01      -5.007e-03         -0.1329
  61       3.919e-02      -4.102e-01      -4.925e-03         -0.1954
  62       1.803e-02      -4.102e-01      -3.686e-03         -0.3174
  63       6.581e-03      -4.102e-01      -1.505e-03         -0.5197
  64       6.581e-03      -4.102e-01       2.129e-03          0.3463
  65       1.803e-02      -4.102e-01       6.662e-03         -0.0760
  66       3.919e-02      -4.102e-01       9.847e-03         -0.1734
  67       6.684e-02      -4.102e-01       1.050e-02         -0.1714
  68       9.676e-02      -4.102e-01       8.496e-03         -0.1219
  69       1.244e-01      -4.102e-01       4.974e-03         -0.0331
  70       1.456e-01      -4.102e-01       1.842e-03          0.0665
  71       1.570e-01      -4.102e-01       3.034e-04          0.1243
Strip 5
  72       1.570e-01      -4.064e-01      -1.085e-04          0.1221
  73       1.454e-01      -4.064e-01      -8.283e-04          0.0689
  74       1.239e-01      -4.064e-01      -2.389e-03         -0.0180
  75       9.588e-02      -4.064e-01      -4.089e-03         -0.0880
  76       6.554e-02      -4.064e-01      -5.077e-03         -0.1396
  77       3.751e-02      -4.064e-01      -4.994e-03         -0.2071
  78       1.605e-02      -4.064e-01      -3.737e-03         -0.3335
  79       4.438e-03      -4.064e-01      -1.526e-03         -0.6338
  80       4.438e-03      -4.064e-01       2.159e-03          0.6024
  81       1.605e-02      -4.064e-01       6.755e-03         -0.0473
  82       3.751e-02      -4.064e-01       9.985e-03         -0.1863
  83       6.554e-02      -4.064e-01       1.065e-02         -0.1880
  84       9.588e-02      -4.064e-01       8.615e-03         -0.1297
  85       1.239e-01      -4.064e-01       5.043e-03         -0.0310
  86       1.454e-01      -4.064e-01       1.868e-03          0.0756
  87       1.570e-01      -4.064e-01       3.076e-04          0.1379
Strip 6
  88       1.570e-01      -4.022e-01      -1.093e-04          0.1239
  89       1.453e-01      -4.022e-01      -8.342e-04          0.0715
  90       1.237e-01      -4.022e-01      -2.406e-03         -0.0166
  91       9.542e-02      -4.022e-01      -4.118e-03         -0.0898
  92       6.487e-02      -4.022e-01      -5.113e-03         -0.1459
  93       3.663e-02      -4.022e-01      -5.030e-03         -0.2168
  94       1.502e-02      -4.022e-01      -3.764e-03         -0.3488
  95       3.329e-03      -4.022e-01      -1.537e-03         -0.7460
  96       3.329e-03      -4.022e-01       2.174e-03          0.7611
  97       1.502e-02      -4.022e-01       6.803e-03         -0.0342
  98       3.663e-02      -4.022e-01       1.006e-02         -0.1984
  99       6.487e-02      -4.022e-01       1.072e-02         -0.2024
 100       9.542e-02      -4.022e-01       8.677e-03         -0.1356
 101       1.237e-01      -4.022e-01       5.079e-03         -0.0266
 102       1.453e-01      -4.022e-01       1.881e-03          0.0818
 103       1.570e-01      -4.022e-01       3.098e-04          0.1428
Strip 7
 104       1.570e-01      -3.833e-01      -1.095e-04          0.1611
 105       1.452e-01      -3.833e-01      -8.358e-04          0.0995
 106       1.236e-01      -3.833e-01      -2.410e-03         -0.0066
 107       9.531e-02      -3.833e-01      -4.126e-03         -0.0997
 108       6.469e-02      -3.833e-01      -5.123e-03         -0.1723
 109       3.641e-02      -3.833e-01      -5.039e-03         -0.2617
 110       1.476e-02      -3.833e-01      -3.771e-03         -0.4330
 111       3.045e-03      -3.833e-01      -1.540e-03         -1.0019
 112       3.045e-03      -3.833e-01       2.178e-03          0.8679
 113       1.476e-02      -3.833e-01       6.815e-03         -0.0280
 114       3.641e-02      -3.833e-01       1.007e-02         -0.2321
 115       6.469e-02      -3.833e-01       1.074e-02         -0.2412
 116       9.531e-02      -3.833e-01       8.692e-03         -0.1610
 117       1.236e-01      -3.833e-01       5.089e-03         -0.0324
 118       1.452e-01      -3.833e-01       1.885e-03          0.0947
 119       1.570e-01      -3.833e-01       3.104e-04          0.1663
Strip 8
 120       1.570e-01      -3.500e-01      -1.095e-04          0.1706
 121       1.452e-01      -3.500e-01      -8.358e-04          0.1066
 122       1.236e-01      -3.500e-01      -2.410e-03         -0.0065
 123       9.531e-02      -3.500e-01      -4.126e-03         -0.1130
 124       6.469e-02      -3.500e-01      -5.123e-03         -0.1997
 125       3.641e-02      -3.500e-01      -5.039e-03         -0.3012
 126       1.476e-02      -3.500e-01      -3.771e-03         -0.4868
 127       3.045e-03      -3.500e-01      -1.540e-03         -1.1419
 128       3.045e-03      -3.500e-01       2.178e-03          0.9027
 129       1.476e-02      -3.500e-01       6.815e-03         -0.0049
 130       3.641e-02      -3.500e-01       1.007e-02         -0.2432
 131       6.469e-02      -3.500e-01       1.074e-02         -0.2646
 132       9.531e-02      -3.500e-01       8.692e-03         -0.1778
 133       1.236e-01      -3.500e-01       5.089e-03         -0.0361
 134       1.452e-01      -3.500e-01       1.885e-03          0.0993
 135       1.570e-01      -3.500e-01       3.104e-04          0.1742
Strip 9
 136       1.570e-01      -3.167e-01      -1.095e-04          0.1722
 137       1.452e-01      -3.167e-01      -8.358e-04          0.1068
 138       1.236e-01      -3.167e-01      -2.410e-03         -0.0096
 139       9.531e-02      -3.167e-01      -4.126e-03         -0.1215
 140       6.469e-02      -3.167e-01      -5.123e-03         -0.2140
 141       3.641e-02      -3.167e-01      -5.039e-03         -0.3207
 142       1.476e-02      -3.167e-01      -3.771e-03         -0.5152
 143       3.045e-03      -3.167e-01      -1.540e-03         -1.2159
 144       3.045e-03      -3.167e-01       2.178e-03          0.9173
 145       1.476e-02      -3.167e-01       6.815e-03          0.0076
 146       3.641e-02      -3.167e-01       1.007e-02         -0.2427
 147       6.469e-02      -3.167e-01       1.074e-02         -0.2703
 148       9.531e-02      -3.167e-01       8.692e-03         -0.1833
 149       1.236e-01      -3.167e-01       5.089e-03         -0.0384
 150       1.452e-01      -3.167e-01       1.885e-03          0.0996
 151       1.570e-01      -3.167e-01       3.104e-04          0.1755
Strip 10
 152       1.570e-01      -2.833e-01      -1.095e-04          0.1722
 153       1.452e-01      -2.833e-01      -8.358e-04          0.1059
 154       1.236e-01      -2.833e-01      -2.410e-03         -0.0125
 155       9.531e-02      -2.833e-01      -4.126e-03         -0.1273
 156       6.469e-02      -2.833e-01      -5.123e-03         -0.2228
 157       3.641e-02      -2.833e-01      -5.039e-03         -0.3324
 158       1.476e-02      -2.833e-01      -3.771e-03         -0.5328
 159       3.045e-03      -2.833e-01      -1.540e-03         -1.2632
 160       3.045e-03      -2.833e-01       2.178e-03          0.9258
 161       1.476e-02      -2.833e-01       6.815e-03          0.0161
 162       3.641e-02      -2.833e-01       1.007e-02         -0.2404
 163       6.469e-02      -2.833e-01       1.074e-02         -0.2713
 164       9.531e-02      -2.833e-01       8.692e-03         -0.1850
 165       1.236e-01      -2.833e-01       5.089e-03         -0.0394
 166       1.452e-01      -2.833e-01       1.885e-03          0.0993
 167       1.570e-01      -2.833e-01       3.104e-04          0.1755
Strip 11
 168       1.570e-01      -2.500e-01      -1.095e-04          0.1717
 169       1.452e-01      -2.500e-01      -8.358e-04          0.1048
 170       1.236e-01      -2.500e-01      -2.410e-03         -0.0149
 171       9.531e-02      -2.500e-01      -4.126e-03         -0.1313
 172       6.469e-02      -2.500e-01      -5.123e-03         -0.2285
 173       3.641e-02      -2.500e-01      -5.039e-03         -0.3401
 174       1.476e-02      -2.500e-01      -3.771e-03         -0.5447
 175       3.045e-03      -2.500e-01      -1.540e-03         -1.2961
 176       3.045e-03      -2.500e-01       2.178e-03          0.9314
 177       1.476e-02      -2.500e-01       6.815e-03          0.0223
 178       3.641e-02      -2.500e-01       1.007e-02         -0.2378
 179       6.469e-02      -2.500e-01       1.074e-02         -0.2708
 180       9.531e-02      -2.500e-01       8.692e-03         -0.1853
 181       1.236e-01      -2.500e-01       5.089e-03         -0.0397
 182       1.452e-01      -2.500e-01       1.885e-03          0.0990
 183       1.570e-01      -2.500e-01       3.104e-04          0.1753
Strip 12
 184       1.570e-01      -2.167e-01      -1.095e-04          0.1712
 185       1.452e-01      -2.167e-01      -8.358e-04          0.1039
 186       1.236e-01      -2.167e-01      -2.410e-03         -0.0166
 187       9.531e-02      -2.167e-01      -4.126e-03         -0.1341
 188       6.469e-02      -2.167e-01      -5.123e-03         -0.2325
 189       3.641e-02      -2.167e-01      -5.039e-03         -0.3454
 190       1.476e-02      -2.167e-01      -3.771e-03         -0.5532
 191       3.045e-03      -2.167e-01      -1.540e-03         -1.3201
 192       3.045e-03      -2.167e-01       2.178e-03          0.9354
 193       1.476e-02      -2.167e-01       6.815e-03          0.0271
 194       3.641e-02      -2.167e-01       1.007e-02         -0.2356
 195       6.469e-02      -2.167e-01       1.074e-02         -0.2699
 196       9.531e-02      -2.167e-01       8.692e-03         -0.1851
 197       1.236e-01      -2.167e-01       5.089e-03         -0.0398
 198       1.452e-01      -2.167e-01       1.885e-03          0.0989
 199       1.570e-01      -2.167e-01       3.104e-04          0.1750
Strip 13
 200       1.570e-01      -1.833e-01      -1.095e-04          0.1708
 201       1.452e-01      -1.833e-01      -8.358e-04          0.1031
 202       1.236e-01      -1.833e-01      -2.410e-03         -0.0179
 203       9.531e-02      -1.833e-01      -4.126e-03         -0.1362
 204       6.469e-02      -1.833e-01      -5.123e-03         -0.2353
 205       3.641e-02      -1.833e-01      -5.039e-03         -0.3492
 206       1.476e-02      -1.833e-01      -3.771e-03         -0.5594
 207       3.045e-03      -1.833e-01      -1.540e-03         -1.3381
 208       3.045e-03      -1.833e-01       2.178e-03          0.9383
 209       1.476e-02      -1.833e-01       6.815e-03          0.0307
 210       3.641e-02      -1.833e-01       1.007e-02         -0.2337
 211       6.469e-02      -1.833e-01       1.074e-02         -0.2690
 212       9.531e-02      -1.833e-01       8.692e-03         -0.1847
 213       1.236e-01      -1.833e-01       5.089e-03         -0.0397
 214       1.452e-01      -1.833e-01       1.885e-03          0.0987
 215       1.570e-01      -1.833e-01       3.104e-04          0.1748
Strip 14
 216       1.570e-01      -1.500e-01      -1.095e-04          0.1705
 217       1.452e-01      -1.500e-01      -8.358e-04          0.1026
 218       1.236e-01      -1.500e-01      -2.410e-03         -0.0189
 219       9.531e-02      -1.500e-01      -4.126e-03         -0.1376
 220       6.469e-02      -1.500e-01      -5.123e-03         -0.2373
 221       3.641e-02      -1.500e-01      -5.039e-03         -0.3520
 222       1.476e-02      -1.500e-01      -3.771e-03         -0.5639
 223       3.045e-03      -1.500e-01      -1.540e-03         -1.3515
 224       3.045e-03      -1.500e-01       2.178e-03          0.9404
 225       1.476e-02      -1.500e-01       6.815e-03          0.0335
 226       3.641e-02      -1.500e-01       1.007e-02         -0.2322
 227       6.469e-02      -1.500e-01       1.074e-02         -0.2682
 228       9.531e-02      -1.500e-01       8.692e-03         -0.1843
 229       1.236e-01      -1.500e-01       5.089e-03         -0.0396
 230       1.452e-01      -1.500e-01       1.885e-03          0.0987
 231       1.570e-01      -1.500e-01       3.104e-04          0.1747
Strip 15
 232       1.570e-01      -1.167e-01      -1.095e-04          0.1703
 233       1.452e-01      -1.167e-01      -8.358e-04          0.1022
 234       1.236e-01      -1.167e-01      -2.410e-03         -0.0196
 235       9.531e-02      -1.167e-01      -4.126e-03         -0.1387
 236       6.469e-02      -1.167e-01      -5.123e-03         -0.2388
 237       3.641e-02      -1.167e-01      -5.039e-03         -0.3540
 238       1.476e-02      -1.167e-01      -3.771e-03         -0.5672
 239       3.045e-03      -1.167e-01      -1.540e-03         -1.3614
 240       3.045e-03      -1.167e-01       2.178e-03          0.9420
 241       1.476e-02      -1.167e-01       6.815e-03          0.0356
 242       3.641e-02      -1.167e-01       1.007e-02         -0.2311
 243       6.469e-02      -1.167e-01       1.074e-02         -0.2675
 244       9.531e-02      -1.167e-01       8.692e-03         -0.1840
 245       1.236e-01      -1.167e-01       5.089e-03         -0.0395
 246       1.452e-01      -1.167e-01       1.885e-03          0.0987
 247       1.570e-01      -1.167e-01       3.104e-04          0.1746
Strip 16
 248       1.570e-01      -8.333e-02      -1.095e-04          0.1701
 249       1.452e-01      -8.333e-02      -8.358e-04          0.1019
 250       1.236e-01      -8.333e-02      -2.410e-03         -0.0201
 251       9.531e-02      -8.333e-02      -4.126e-03         -0.1394
 252       6.469e-02      -8.333e-02      -5.123e-03         -0.2398
 253       3.641e-02      -8.333e-02      -5.039e-03         -0.3554
 254       1.476e-02      -8.333e-02      -3.771e-03         -0.5696
 255       3.045e-03      -8.333e-02      -1.540e-03         -1.3684
 256       3.045e-03      -8.333e-02       2.178e-03          0.9430
 257       1.476e-02      -8.333e-02       6.815e-03          0.0370
 258       3.641e-02      -8.333e-02       1.007e-02         -0.2303
 259       6.469e-02      -8.333e-02       1.074e-02         -0.2671
 260       9.531e-02      -8.333e-02       8.692e-03         -0.1838
 261       1.236e-01      -8.333e-02       5.089e-03         -0.0394
 262       1.452e-01      -8.333e-02       1.885e-03          0.0987
 263       1.570e-01      -8.333e-02       3.104e-04          0.1745
Strip 17
 264       1.570e-01      -5.000e-02      -1.095e-04          0.1700
 265       1.452e-01      -5.000e-02      -8.358e-04          0.1017
 266       1.236e-01      -5.000e-02      -2.410e-03         -0.0204
 267       9.531e-02      -5.000e-02      -4.126e-03         -0.1399
 268       6.469e-02      -5.000e-02      -5.123e-03         -0.2404
 269       3.641e-02      -5.000e-02      -5.039e-03         -0.3562
 270       1.476e-02      -5.000e-02      -3.771e-03         -0.5710
 271       3.045e-03      -5.000e-02      -1.540e-03         -1.3729
 272       3.045e-03      -5.000e-02       2.178e-03          0.9437
 273       1.476e-02      -5.000e-02       6.815e-03          0.0380
 274       3.641e-02      -5.000e-02       1.007e-02         -0.2297
 275       6.469e-02      -5.000e-02       1.074e-02         -0.2667
 276       9.531e-02      -5.000e-02       8.692e-03         -0.1836
 277       1.236e-01      -5.000e-02       5.089e-03         -0.0393
 278       1.452e-01      -5.000e-02       1.885e-03          0.0986
 279       1.570e-01      -5.000e-02       3.104e-04          0.1744
Strip 18
 280       1.570e-01      -1.667e-02      -1.095e-04          0.1699
 281       1.452e-01      -1.667e-02      -8.358e-04          0.1016
 282       1.236e-01      -1.667e-02      -2.410e-03         -0.0205
 283       9.531e-02      -1.667e-02      -4.126e-03         -0.1401
 284       6.469e-02      -1.667e-02      -5.123e-03         -0.2407
 285       3.641e-02      -1.667e-02      -5.039e-03         -0.3567
 286       1.476e-02      -1.667e-02      -3.771e-03         -0.5717
 287       3.045e-03      -1.667e-02      -1.540e-03         -1.3751
 288       3.045e-03      -1.667e-02       2.178e-03          0.9441
 289       1.476e-02      -1.667e-02       6.815e-03          0.0385
 290       3.641e-02      -1.667e-02       1.007e-02         -0.2294
 291       6.469e-02      -1.667e-02       1.074e-02         -0.2666
 292       9.531e-02      -1.667e-02       8.692e-03         -0.1835
 293       1.236e-01      -1.667e-02       5.089e-03         -0.0393
 294       1.452e-01      -1.667e-02       1.885e-03          0.0986
 295       1.570e-01      -1.667e-02       3.104e-04          0.1744
Strip 19
 296       1.570e-01       1.667e-02      -1.095e-04          0.1699
 297       1.452e-01       1.667e-02      -8.358e-04          0.1016
 298       1.236e-01       1.667e-02      -2.410e-03         -0.0205
 299       9.531e-02       1.667e-02      -4.126e-03         -0.1401
 300       6.469e-02       1.667e-02      -5.123e-03         -0.2407
 301       3.641e-02       1.667e-02      -5.039e-03         -0.3567
 302       1.476e-02       1.667e-02      -3.771e-03         -0.5717
 303       3.045e-03       1.667e-02      -1.540e-03         -1.3751
 304       3.045e-03       1.667e-02       2.178e-03          0.9441
 305       1.476e-02       1.667e-02       6.815e-03          0.0385
 306       3.641e-02       1.667e-02       1.007e-02         -0.2294
 307       6.469e-02       1.667e-02       1.074e-02         -0.2666
 308       9.531e-02       1.667e-02       8.692e-03         -0.1835
 309       1.236e-01       1.667e-02       5.089e-03         -0.0393
 310       1.452e-01       1.667e-02       1.885e-03          0.0986
 311       1.570e-01       1.667e-02       3.104e-04          0.1744
Strip 20
 312       1.570e-01       5.000e-02      -1.095e-04          0.1700
 313       1.452e-01       5.000e-02      -8.358e-04          0.1017
 314       1.236e-01       5.000e-02      -2.410e-03         -0.0204
 315       9.531e-02       5.000e-02      -4.126e-03         -0.1399
 316       6.469e-02       5.000e-02      -5.123e-03         -0.2404
 317       3.641e-02       5.000e-02      -5.039e-03         -0.3562
 318       1.476e-02       5.000e-02      -3.771e-03         -0.5710
 319       3.045e-03       5.000e-02      -1.540e-03         -1.3729
 320       3.045e-03       5.000e-02       2.178e-03          0.9437
 321       1.476e-02       5.000e-02       6.815e-03          0.0380
 322       3.641e-02       5.000e-02       1.007e-02         -0.2297
 323       6.469e-02       5.000e-02       1.074e-02         -0.2667
 324       9.531e-02       5.000e-02       8.692e-03         -0.1836
 325       1.236e-01       5.000e-02       5.089e-03         -0.0393
 326       1.452e-01       5.000e-02       1.885e-03          0.0986
 327       1.570e-01       5.000e-02       3.104e-04          0.1744
Strip 21
 328       1.570e-01       8.333e-02      -1.095e-04          0.1701
 329       1.452e-01       8.333e-02      -8.358e-04          0.1019
 330       1.236e-01       8.333e-02      -2.410e-03         -0.0201
 331       9.531e-02       8.333e-02      -4.126e-03         -0.1394
 332       6.469e-02       8.333e-02      -5.123e-03         -0.2398
 333       3.641e-02       8.333e-02      -5.039e-03         -0.3554
 334       1.476e-02       8.333e-02      -3.771e-03         -0.5696
 335       3.045e-03       8.333e-02      -1.540e-03         -1.3684
 336       3.045e-03       8.333e-02       2.178e-03          0.9430
 337       1.476e-02       8.333e-02       6.815e-03          0.0370
 338       3.641e-02       8.333e-02       1.007e-02         -0.2303
 339       6.469e-02       8.333e-02       1.074e-02         -0.2671
 340       9.531e-02       8.333e-02       8.692e-03         -0.1838
 341       1.236e-01       8.333e-02       5.089e-03         -0.0394
 342       1.452e-01       8.333e-02       1.885e-03          0.0987
 343       1.570e-01       8.333e-02       3.104e-04          0.1745
Strip 22
 344       1.570e-01       1.167e-01      -1.095e-04          0.1703
 345       1.452e-01       1.167e-01      -8.358e-04          0.1022
 346       1.236e-01       1.167e-01      -2.410e-03         -0.0196
 347       9.531e-02       1.167e-01      -4.126e-03         -0.1387
 348       6.469e-02       1.167e-01      -5.123e-03         -0.2388
 349       3.641e-02       1.167e-01      -5.039e-03         -0.3540
 350       1.476e-02       1.167e-01      -3.771e-03         -0.5672
 351       3.045e-03       1.167e-01      -1.540e-03         -1.3614
 352       3.045e-03       1.167e-01       2.178e-03          0.9420
 353       1.476e-02       1.167e-01       6.815e-03          0.0356
 354       3.641e-02       1.167e-01       1.007e-02         -0.2311
 355       6.469e-02       1.167e-01       1.074e-02         -0.2675
 356       9.531e-02       1.167e-01       8.692e-03         -0.1840
 357       1.236e-01       1.167e-01       5.089e-03         -0.0395
 358       1.452e-01       1.167e-01       1.885e-03          0.0987
 359       1.570e-01       1.167e-01       3.104e-04          0.1746
Strip 23
 360       1.570e-01       1.500e-01      -1.095e-04          0.1705
 361       1.452e-01       1.500e-01      -8.358e-04          0.1026
 362       1.236e-01       1.500e-01      -2.410e-03         -0.0189
 363       9.531e-02       1.500e-01      -4.126e-03         -0.1376
 364       6.469e-02       1.500e-01      -5.123e-03         -0.2373
 365       3.641e-02       1.500e-01      -5.039e-03         -0.3520
 366       1.476e-02       1.500e-01      -3.771e-03         -0.5639
 367       3.045e-03       1.500e-01      -1.540e-03         -1.3515
 368       3.045e-03       1.500e-01       2.178e-03          0.9404
 369       1.476e-02       1.500e-01       6.815e-03          0.0335
 370       3.641e-02       1.500e-01       1.007e-02         -0.2322
 371       6.469e-02       1.500e-01       1.074e-02         -0.2682
 372       9.531e-02       1.500e-01       8.692e-03         -0.1843
 373       1.236e-01       1.500e-01       5.089e-03         -0.0396
 374       1.452e-01       1.500e-01       1.885e-03          0.0987
 375       1.570e-01       1.500e-01       3.104e-04          0.1747
Strip 24
 376       1.570e-01       1.833e-01      -1.095e-04          0.1708
 377       1.452e-01       1.833e-01      -8.358e-04          0.1031
 378       1.236e-01       1.833e-01      -2.410e-03         -0.0179
 379       9.531e-02       1.833e-01      -4.126e-03         -0.1362
 380       6.469e-02       1.833e-01      -5.123e-03         -0.2353
 381       3.641e-02       1.833e-01      -5.039e-03         -0.3492
 382       1.476e-02       1.833e-01      -3.771e-03         -0.5594
 383       3.045e-03       1.833e-01      -1.540e-03         -1.3381
 384       3.045e-03       1.833e-01       2.178e-03          0.9383
 385       1.476e-02       1.833e-01       6.815e-03          0.0307
 386       3.641e-02       1.833e-01       1.007e-02         -0.2337
 387       6.469e-02       1.833e-01       1.074e-02         -0.2690
 388       9.531e-02       1.833e-01       8.692e-03         -0.1847
 389       1.236e-01       1.833e-01       5.089e-03         -0.0397
 390       1.452e-01       1.833e-01       1.885e-03          0.0987
 391       1.570e-01       1.833e-01       3.104e-04          0.1748
Strip 25
 392       1.570e-01       2.167e-01      -1.095e-04          0.1712
 393       1.452e-01       2.167e-01      -8.358e-04          0.1039
 394       1.236e-01       2.167e-01      -2.410e-03         -0.0166
 395       9.531e-02       2.167e-01      -4.126e-03         -0.1341
 396       6.469e-02       2.167e-01      -5.123e-03         -0.2325
 397       3.641e-02       2.167e-01      -5.039e-03         -0.3454
 398       1.476e-02       2.167e-01      -3.771e-03         -0.5532
 399       3.045e-03       2.167e-01      -1.540e-03         -1.3201
 400       3.045e-03       2.167e-01       2.178e-03          0.9354
 401       1.476e-02       2.167e-01       6.815e-03          0.0271
 402       3.641e-02       2.167e-01       1.007e-02         -0.2356
 403       6.469e-02       2.167e-01       1.074e-02         -0.2699
 404       9.531e-02       2.167e-01       8.692e-03         -0.1851
 405       1.236e-01       2.167e-01       5.089e-03         -0.0398
 406       1.452e-01       2.167e-01       1.885e-03          0.0989
 407       1.570e-01       2.167e-01       3.104e-04          0.1750
Strip 26
 408       1.570e-01       2.500e-01      -1.095e-04          0.1717
 409       1.452e-01       2.500e-01      -8.358e-04          0.1048
 410       1.236e-01       2.500e-01      -2.410e-03         -0.0149
 411       9.531e-02       2.500e-01      -4.126e-03         -0.1313
 412       6.469e-02       2.500e-01      -5.123e-03         -0.2285
 413       3.641e-02       2.500e-01      -5.039e-03         -0.3401
 414       1.476e-02       2.500e-01      -3.771e-03         -0.5447
 415       3.045e-03       2.500e-01      -1.540e-03         -1.2961
 416       3.045e-03       2.500e-01       2.178e-03          0.9314
 417       1.476e-02       2.500e-01       6.815e-03          0.0223
 418       3.641e-02       2.500e-01       1.007e-02         -0.2378
 419       6.469e-02       2.500e-01       1.074e-02         -0.2708
 420       9.531e-02       2.500e-01       8.692e-03         -0.1853
 421       1.236e-01       2.500e-01       5.089e-03         -0.0397
 422       1.452e-01       2.500e-01       1.885e-03          0.0990
 423       1.570e-01       2.500e-01       3.104e-04          0.1753
Strip 27
 424       1.570e-01       2.833e-01      -1.095e-04          0.1722
 425       1.452e-01       2.833e-01      -8.358e-04          0.1059
 426       1.236e-01       2.833e-01      -2.410e-03         -0.0125
 427       9.531e-02       2.833e-01      -4.126e-03         -0.1273
 428       6.469e-02       2.833e-01      -5.123e-03         -0.2228
 429       3.641e-02       2.833e-01      -5.039e-03         -0.3324
 430       1.476e-02       2.833e-01      -3.771e-03         -0.5328
 431       3.045e-03       2.833e-01      -1.540e-03         -1.2632
 432       3.045e-03       2.833e-01       2.178e-03          0.9258
 433       1.476e-02       2.833e-01       6.815e-03          0.0161
 434       3.641e-02       2.833e-01       1.007e-02         -0.2404
 435       6.469e-02       2.833e-01       1.074e-02         -0.2713
 436       9.531e-02       2.833e-01       8.692e-03         -0.1850
 437       1.236e-01       2.833e-01       5.089e-03         -0.0394
 438       1.452e-01       2.833e-01       1.885e-03          0.0993
 439       1.570e-01       2.833e-01       3.104e-04          0.1755
Strip 28
 440       1.570e-01       3.167e-01      -1.095e-04          0.1722
 441       1.452e-01       3.167e-01      -8.358e-04          0.1068
 442       1.236e-01       3.167e-01      -2.410e-03         -0.0096
 443       9.531e-02       3.167e-01      -4.126e-03         -0.1215
 444       6.469e-02       3.167e-01      -5.123e-03         -0.2140
 445       3.641e-02       3.167e-01      -5.039e-03         -0.3207
 446       1.476e-02       3.167e-01      -3.771e-03         -0.5152
 447       3.045e-03       3.167e-01      -1.540e-03         -1.2159
 448       3.045e-03       3.167e-01       2.178e-03          0.9173
 449       1.476e-02       3.167e-01       6.815e-03          0.0076
 450       3.641e-02       3.167e-01       1.007e-02         -0.2427
 451       6.469e-02       3.167e-01       1.074e-02         -0.2703
 452       9.531e-02       3.167e-01       8.692e-03         -0.1833
 453       1.236e-01       3.167e-01       5.089e-03         -0.0384
 454       1.452e-01       3.167e-01       1.885e-03          0.0996
 455       1.570e-01       3.167e-01       3.104e-04          0.1755
Strip 29
 456       1.570e-01       3.500e-01      -1.095e-04          0.1706
 457       1.452e-01       3.500e-01      -8.358e-04          0.1066
 458       1.236e-01       3.500e-01      -2.410e-03         -0.0065
 459       9.531e-02       3.500e-01      -4.126e-03         -0.1130
 460       6.469e-02       3.500e-01      -5.123e-03         -0.1997
 461       3.641e-02       3.500e-01      -5.039e-03         -0.3012
 462       1.476e-02       3.500e-01      -3.771e-03         -0.4868
 463       3.045e-03       3.500e-01      -1.540e-03         -1.1419
 464       3.045e-03       3.500e-01       2.178e-03          0.9027
 465       1.476e-02       3.500e-01       6.815e-03         -0.0049
 466       3.641e-02       3.500e-01       1.007e-02         -0.2432
 467       6.469e-02       3.500e-01       1.074e-02         -0.2646
 468       9.531e-02       3.500e-01       8.692e-03         -0.1778
 469       1.236e-01       3.500e-01       5.089e-03         -0.0361
 470       1.452e-01       3.500e-01       1.885e-03          0.0993
 471       1.570e-01       3.500e-01       3.104e-04          0.1742
Strip 30
 472       1.570e-01       3.833e-01      -1.095e-04          0.1611
 473       1.452e-01       3.833e-01      -8.358e-04          0.0995
 474       1.236e-01       3.833e-01      -2.410e-03         -0.0066
 475       9.531e-02       3.833e-01      -4.126e-03         -0.0997
 476       6.469e-02       3.833e-01      -5.123e-03         -0.1723
 477       3.641e-02       3.833e-01      -5.039e-03         -0.2617
 478       1.476e-02       3.833e-01      -3.771e-03         -0.4330
 479       3.045e-03       3.833e-01      -1.540e-03         -1.0019
 480       3.045e-03       3.833e-01       2.178e-03          0.8679
 481       1.476e-02       3.833e-01       6.815e-03         -0.0280
 482       3.641e-02       3.833e-01       1.007e-02         -0.2321
 483       6.469e-02       3.833e-01       1.074e-02         -0.2412
 484       9.531e-02       3.833e-01       8.692e-03         -0.1610
 485       1.236e-01       3.833e-01       5.089e-03         -0.0324
 486       1.452e-01       3.833e-01       1.885e-03          0.0947
 487       1.570e-01       3.833e-01       3.104e-04          0.1663
Strip 31
 488       1.570e-01       4.022e-01      -1.093e-04          0.1239
 489       1.453e-01       4.022e-01      -8.342e-04          0.0715
 490       1.237e-01       4.022e-01      -2.406e-03         -0.0166
 491       9.542e-02       4.022e-01      -4.118e-03         -0.0898
 492       6.487e-02       4.022e-01      -5.113e-03         -0.1459
 493       3.663e-02       4.022e-01      -5.030e-03         -0.2168
 494       1.502e-02       4.022e-01      -3.764e-03         -0.3488
 495       3.329e-03       4.022e-01      -1.537e-03         -0.7460
 496       3.329e-03       4.022e-01       2.174e-03          0.7611
 497       1.502e-02       4.022e-01       6.803e-03         -0.0342
 498       3.663e-02       4.022e-01       1.006e-02         -0.1984
 499       6.487e-02       4.022e-01       1.072e-02         -0.2024
 500       9.542e-02       4.022e-01       8.677e-03         -0.1356
 501       1.237e-01       4.022e-01       5.079e-03         -0.0266
 502       1.453e-01       4.022e-01       1.881e-03          0.0818
 503       1.570e-01       4.022e-01       3.098e-04          0.1428
Strip 32
 504       1.570e-01       4.064e-01      -1.085e-04          0.1221
 505       1.454e-01       4.064e-01      -8.283e-04          0.0689
 506       1.239e-01       4.064e-01      -2.389e-03         -0.0180
 507       9.588e-02       4.064e-01      -4.089e-03         -0.0880
 508       6.554e-02       4.064e-01      -5.077e-03         -0.1396
 509       3.751e-02       4.064e-01      -4.994e-03         -0.2071
 510       1.605e-02       4.064e-01      -3.737e-03         -0.3335
 511       4.438e-03       4.064e-01      -1.526e-03         -0.6338
 512       4.438e-03       4.064e-01       2.159e-03          0.6024
 513       1.605e-02       4.064e-01       6.755e-03         -0.0473
 514       3.751e-02       4.064e-01       9.985e-03         -0.1863
 515       6.554e-02       4.064e-01       1.065e-02         -0.1880
 516       9.588e-02       4.064e-01       8.615e-03         -0.1297
 517       1.239e-01       4.064e-01       5.043e-03         -0.0310
 518       1.454e-01       4.064e-01       1.868e-03          0.0756
 519       1.570e-01       4.064e-01       3.076e-04          0.1379
Strip 33
 520       1.570e-01       4.102e-01      -1.070e-04          0.1086
 521       1.456e-01       4.102e-01      -8.169e-04          0.0579
 522       1.244e-01       4.102e-01      -2.356e-03         -0.0221
 523       9.676e-02       4.102e-01      -4.033e-03         -0.0867
 524       6.684e-02       4.102e-01      -5.007e-03         -0.1329
 525       3.919e-02       4.102e-01      -4.925e-03         -0.1954
 526       1.803e-02       4.102e-01      -3.686e-03         -0.3174
 527       6.581e-03       4.102e-01      -1.505e-03         -0.5197
 528       6.581e-03       4.102e-01       2.129e-03          0.3463
 529       1.803e-02       4.102e-01       6.662e-03         -0.0760
 530       3.919e-02       4.102e-01       9.847e-03         -0.1734
 531       6.684e-02       4.102e-01       1.050e-02         -0.1714
 532       9.676e-02       4.102e-01       8.496e-03         -0.1219
 533       1.244e-01       4.102e-01       4.974e-03         -0.0331
 534       1.456e-01       4.102e-01       1.842e-03          0.0665
 535       1.570e-01       4.102e-01       3.034e-04          0.1243
Strip 34
 536       1.571e-01       4.133e-01      -1.049e-04          0.0830
 537       1.459e-01       4.133e-01      -8.008e-04          0.0386
 538       1.251e-01       4.133e-01      -2.309e-03         -0.0283
 539       9.802e-02       4.133e-01      -3.953e-03         -0.0854
 540       6.868e-02       4.133e-01      -4.908e-03         -0.1273
 541       4.158e-02       4.133e-01      -4.828e-03         -0.1826
 542       2.084e-02       4.133e-01      -3.613e-03         -0.3036
 543       9.617e-03       4.133e-01      -1.475e-03         -0.3937
 544       9.617e-03       4.133e-01       2.087e-03         -0.0176
 545       2.084e-02       4.133e-01       6.530e-03         -0.1380
 546       4.158e-02       4.133e-01       9.652e-03         -0.1655
 547       6.868e-02       4.133e-01       1.029e-02         -0.1549
 548       9.802e-02       4.133e-01       8.328e-03         -0.1131
 549       1.251e-01       4.133e-01       4.876e-03         -0.0363
 550       1.459e-01       4.133e-01       1.806e-03          0.0536
 551       1.571e-01       4.133e-01       2.974e-04          0.1033
Strip 35
 552       1.572e-01       4.155e-01      -1.023e-04          0.0211
 553       1.462e-01       4.155e-01      -7.810e-04          0.0123
 554       1.260e-01       4.155e-01      -2.252e-03         -0.0309
 555       9.955e-02       4.155e-01      -3.855e-03         -0.0832
 556       7.094e-02       4.155e-01      -4.787e-03         -0.1233
 557       4.451e-02       4.155e-01      -4.708e-03         -0.1735
 558       2.428e-02       4.155e-01      -3.523e-03         -0.2813
 559       1.334e-02       4.155e-01      -1.439e-03         -0.2767
 560       1.334e-02       4.155e-01       2.036e-03         -0.4446
 561       2.428e-02       4.155e-01       6.368e-03         -0.3296
 562       4.451e-02       4.155e-01       9.414e-03         -0.2119
 563       7.094e-02       4.155e-01       1.004e-02         -0.1435
 564       9.955e-02       4.155e-01       8.122e-03         -0.1024
 565       1.260e-01       4.155e-01       4.755e-03         -0.0411
 566       1.462e-01       4.155e-01       1.761e-03          0.0359
 567       1.572e-01       4.155e-01       2.900e-04          0.0632
Strip 36
 568       1.572e-01       4.166e-01      -9.943e-05         -0.0279
 569       1.466e-01       4.166e-01      -7.589e-04         -0.0229
 570       1.269e-01       4.166e-01      -2.188e-03         -0.0999
 571       1.013e-01       4.166e-01      -3.746e-03         -0.1442
 572       7.346e-02       4.166e-01      -4.652e-03         -0.1544
 573       4.777e-02       4.166e-01      -4.575e-03         -0.1666
 574       2.812e-02       4.166e-01      -3.424e-03         -0.2425
 575       1.748e-02       4.166e-01      -1.398e-03         -0.2911
 576       1.748e-02       4.166e-01       1.978e-03         -0.7515
 577       2.812e-02       4.166e-01       6.188e-03         -0.9576
 578       4.777e-02       4.166e-01       9.148e-03         -0.8075
 579       7.346e-02       4.166e-01       9.755e-03         -0.2539
 580       1.013e-01       4.166e-01       7.893e-03         -0.0906
 581       1.269e-01       4.166e-01       4.621e-03         -0.0543
 582       1.466e-01       4.166e-01       1.711e-03          0.0127
 583       1.572e-01       4.166e-01       2.818e-04          0.0029










