XFLR5 v6.02 Beta

Rounded tunnel shape
T1-18.0 m/s-VLM1-x0.000mm
QInf  =   18.000000 m/s
Alpha =   -3.000000
Beta  =    0.000°
Phi   =    0.000°
Ctrl  =    0.000
CL    =   -0.115694
Cy    =    0.000000
Cd    =    0.014830     ICd   =    0.000793     PCd   =    0.014037
Cl   = 3.17695e-18
Cm   = -0.00817615
ICn   =    0.000000     PCn   =   -0.000000 
XCP   =   -0.011275     YCP   =   -0.000000 
XNP   =    0.000000
Bend. =    0.000001

Rounded tunnel shape
  y-span        Chord      Ai         Cl        PCd          ICd        CmGeom      CmAirf      XTrtop    XTrBot      XCP       BM
   -0.4176     0.1453     0.833   -0.006863    0.011942    0.007113    0.029341    0.017120     0.8757    0.7989    0.7418    0.0000
   -0.4162     0.1495     0.848    0.008503    0.011685   -0.001862   -0.013690   -0.019657     0.8669    0.8833   -0.8028   -0.0000
   -0.4139     0.1533     0.918   -0.017997    0.011224   -0.000170   -0.015606   -0.023303     0.8725    0.7936   -0.6383    0.0000
   -0.4107     0.1564     0.961   -0.032318    0.010805    0.000203   -0.015897   -0.025461     0.8746    0.7661   -0.4764   -0.0000
   -0.4069     0.1586     0.970   -0.043044    0.010965    0.000330   -0.016059   -0.027444     0.8793    0.6497   -0.3739   -0.0000
   -0.4026     0.1597     0.967   -0.053375    0.011413    0.000397   -0.015968   -0.029463     0.8857    0.4930   -0.2996   -0.0001
   -0.3833     0.1600     0.957   -0.068666    0.012139    0.000572   -0.017174   -0.034322     0.8943    0.3085   -0.2502   -0.0004
   -0.3500     0.1600     0.948   -0.088097    0.013139    0.000729   -0.015248   -0.037251     0.9019    0.1594   -0.1731   -0.0034
   -0.3167     0.1600     0.919   -0.101895    0.013850    0.000819   -0.012673   -0.038123     0.9074    0.0535   -0.1243   -0.0095
   -0.2833     0.1600     0.879   -0.112005    0.014165    0.000861   -0.010325   -0.038301     0.9110    0.0233   -0.0920   -0.0193
   -0.2500     0.1600     0.837   -0.119563    0.014306    0.000874   -0.008386   -0.038249     0.9135    0.0224   -0.0699   -0.0329
   -0.2167     0.1600     0.797   -0.125279    0.014413    0.000873   -0.006846   -0.038136     0.9154    0.0217   -0.0544   -0.0508
   -0.1833     0.1600     0.763   -0.129616    0.014494    0.000864   -0.005646   -0.038019     0.9168    0.0212   -0.0433   -0.0731
   -0.1500     0.1600     0.735   -0.132888    0.014555    0.000853   -0.004729   -0.037919     0.9179    0.0208   -0.0353   -0.1000
   -0.1167     0.1600     0.712   -0.135306    0.014600    0.000842   -0.004047   -0.037840     0.9187    0.0206   -0.0297   -0.1316
   -0.0833     0.1600     0.696   -0.137012    0.014632    0.000833   -0.003564   -0.037783     0.9193    0.0204   -0.0258   -0.1680
   -0.0500     0.1600     0.685   -0.138103    0.014652    0.000826   -0.003255   -0.037746     0.9196    0.0202   -0.0233   -0.2092
   -0.0167     0.1600     0.680   -0.138634    0.014662    0.000823   -0.003104   -0.037728     0.9198    0.0202   -0.0221   -0.2553
    0.0167     0.1600     0.680   -0.138634    0.014662    0.000823   -0.003104   -0.037728     0.9198    0.0202   -0.0221   -0.2553
    0.0500     0.1600     0.685   -0.138103    0.014652    0.000826   -0.003255   -0.037746     0.9196    0.0202   -0.0233   -0.2092
    0.0833     0.1600     0.696   -0.137012    0.014632    0.000833   -0.003564   -0.037783     0.9193    0.0204   -0.0258   -0.1680
    0.1167     0.1600     0.712   -0.135306    0.014600    0.000842   -0.004047   -0.037840     0.9187    0.0206   -0.0297   -0.1316
    0.1500     0.1600     0.735   -0.132888    0.014555    0.000853   -0.004729   -0.037919     0.9179    0.0208   -0.0353   -0.1000
    0.1833     0.1600     0.763   -0.129616    0.014494    0.000864   -0.005646   -0.038019     0.9168    0.0212   -0.0433   -0.0731
    0.2167     0.1600     0.797   -0.125279    0.014413    0.000873   -0.006846   -0.038136     0.9154    0.0217   -0.0544   -0.0508
    0.2500     0.1600     0.837   -0.119563    0.014306    0.000874   -0.008386   -0.038249     0.9135    0.0224   -0.0699   -0.0329
    0.2833     0.1600     0.879   -0.112005    0.014165    0.000861   -0.010325   -0.038301     0.9110    0.0233   -0.0920   -0.0193
    0.3167     0.1600     0.919   -0.101895    0.013850    0.000819   -0.012673   -0.038123     0.9074    0.0535   -0.1243   -0.0095
    0.3500     0.1600     0.948   -0.088097    0.013139    0.000729   -0.015248   -0.037251     0.9019    0.1594   -0.1731   -0.0034
    0.3833     0.1600     0.957   -0.068666    0.012139    0.000572   -0.017174   -0.034322     0.8943    0.3085   -0.2502   -0.0004
    0.4026     0.1597     0.967   -0.053375    0.011413    0.000397   -0.015968   -0.029463     0.8857    0.4930   -0.2996   -0.0001
    0.4069     0.1586     0.970   -0.043044    0.010965    0.000330   -0.016059   -0.027444     0.8793    0.6497   -0.3739   -0.0000
    0.4107     0.1564     0.961   -0.032318    0.010805    0.000203   -0.015897   -0.025461     0.8746    0.7661   -0.4764   -0.0000
    0.4139     0.1533     0.918   -0.017997    0.011224   -0.000170   -0.015606   -0.023303     0.8725    0.7936   -0.6383    0.0000
    0.4162     0.1495     0.848    0.008503    0.011685   -0.001862   -0.013690   -0.019657     0.8669    0.8833   -0.8028   -0.0000


Wing Cp Coefficients
 Panel     CtrlPt.x        CtrlPt.y        CtrlPt.z             Cp
Rounded tunnel shapeCp Coefficients
Strip 1
   8       1.586e-01      -4.155e-01       4.692e-05         -0.0010
   9       1.503e-01      -4.155e-01       3.389e-04          0.0439
  10       1.320e-01      -4.155e-01       1.022e-03          0.0544
  11       1.067e-01      -4.155e-01       1.922e-03          0.0441
  12       7.809e-02      -4.155e-01       2.591e-03          0.0232
  13       5.057e-02      -4.155e-01       2.524e-03         -0.0210
  14       2.833e-02      -4.155e-01       1.716e-03         -0.1048
  15       1.476e-02      -4.155e-01       5.664e-04         -0.5872
Strip 2
  16       1.585e-01      -4.133e-01       4.811e-05         -0.0001
  17       1.500e-01      -4.133e-01       3.475e-04          0.0375
  18       1.313e-01      -4.133e-01       1.048e-03          0.0554
  19       1.053e-01      -4.133e-01       1.971e-03          0.0554
  20       7.602e-02      -4.133e-01       2.657e-03          0.0366
  21       4.780e-02      -4.133e-01       2.588e-03         -0.0107
  22       2.500e-02      -4.133e-01       1.760e-03         -0.1286
  23       1.108e-02      -4.133e-01       5.807e-04         -0.9573
Strip 3
  24       1.585e-01      -4.102e-01       4.908e-05         -0.0039
  25       1.498e-01      -4.102e-01       3.545e-04          0.0275
  26       1.308e-01      -4.102e-01       1.069e-03          0.0519
  27       1.042e-01      -4.102e-01       2.010e-03          0.0638
  28       7.432e-02      -4.102e-01       2.711e-03          0.0477
  29       4.554e-02      -4.102e-01       2.640e-03         -0.0061
  30       2.227e-02      -4.102e-01       1.795e-03         -0.1650
  31       8.069e-03      -4.102e-01       5.924e-04         -1.1893
Strip 4
  32       1.585e-01      -4.064e-01       4.977e-05         -0.0068
  33       1.497e-01      -4.064e-01       3.595e-04          0.0203
  34       1.303e-01      -4.064e-01       1.084e-03          0.0485
  35       1.035e-01      -4.064e-01       2.039e-03          0.0705
  36       7.312e-02      -4.064e-01       2.748e-03          0.0564
  37       4.394e-02      -4.064e-01       2.677e-03         -0.0071
  38       2.035e-02      -4.064e-01       1.821e-03         -0.2044
  39       5.947e-03      -4.064e-01       6.007e-04         -1.3620
Strip 5
  40       1.585e-01      -4.022e-01       5.012e-05         -0.0086
  41       1.496e-01      -4.022e-01       3.620e-04          0.0146
  42       1.301e-01      -4.022e-01       1.092e-03          0.0452
  43       1.031e-01      -4.022e-01       2.053e-03          0.0760
  44       7.251e-02      -4.022e-01       2.768e-03          0.0636
  45       4.311e-02      -4.022e-01       2.696e-03         -0.0109
  46       1.935e-02      -4.022e-01       1.834e-03         -0.2443
  47       4.849e-03      -4.022e-01       6.050e-04         -1.5185
Strip 6
  48       1.585e-01      -3.833e-01       5.021e-05         -0.0111
  49       1.496e-01      -3.833e-01       3.627e-04          0.0129
  50       1.301e-01      -3.833e-01       1.094e-03          0.0500
  51       1.030e-01      -3.833e-01       2.057e-03          0.0888
  52       7.235e-02      -3.833e-01       2.773e-03          0.0711
  53       4.290e-02      -3.833e-01       2.701e-03         -0.0272
  54       1.910e-02      -3.833e-01       1.837e-03         -0.3100
  55       4.567e-03      -3.833e-01       6.061e-04         -1.7599
Strip 7
  56       1.585e-01      -3.500e-01       5.021e-05         -0.0112
  57       1.496e-01      -3.500e-01       3.627e-04          0.0131
  58       1.301e-01      -3.500e-01       1.094e-03          0.0511
  59       1.030e-01      -3.500e-01       2.057e-03          0.0890
  60       7.235e-02      -3.500e-01       2.773e-03          0.0616
  61       4.290e-02      -3.500e-01       2.701e-03         -0.0584
  62       1.910e-02      -3.500e-01       1.837e-03         -0.3738
  63       4.567e-03      -3.500e-01       6.061e-04         -1.9059
Strip 8
  64       1.585e-01      -3.167e-01       5.021e-05         -0.0118
  65       1.496e-01      -3.167e-01       3.627e-04          0.0119
  66       1.301e-01      -3.167e-01       1.094e-03          0.0489
  67       1.030e-01      -3.167e-01       2.057e-03          0.0840
  68       7.235e-02      -3.167e-01       2.773e-03          0.0504
  69       4.290e-02      -3.167e-01       2.701e-03         -0.0792
  70       1.910e-02      -3.167e-01       1.837e-03         -0.4084
  71       4.567e-03      -3.167e-01       6.061e-04         -1.9826
Strip 9
  72       1.585e-01      -2.833e-01       5.021e-05         -0.0128
  73       1.496e-01      -2.833e-01       3.627e-04          0.0101
  74       1.301e-01      -2.833e-01       1.094e-03          0.0458
  75       1.030e-01      -2.833e-01       2.057e-03          0.0786
  76       7.235e-02      -2.833e-01       2.773e-03          0.0413
  77       4.290e-02      -2.833e-01       2.701e-03         -0.0931
  78       1.910e-02      -2.833e-01       1.837e-03         -0.4303
  79       4.567e-03      -2.833e-01       6.061e-04         -2.0314
Strip 10
  80       1.585e-01      -2.500e-01       5.021e-05         -0.0137
  81       1.496e-01      -2.500e-01       3.627e-04          0.0083
  82       1.301e-01      -2.500e-01       1.094e-03          0.0428
  83       1.030e-01      -2.500e-01       2.057e-03          0.0740
  84       7.235e-02      -2.500e-01       2.773e-03          0.0344
  85       4.290e-02      -2.500e-01       2.701e-03         -0.1030
  86       1.910e-02      -2.500e-01       1.837e-03         -0.4456
  87       4.567e-03      -2.500e-01       6.061e-04         -2.0653
Strip 11
  88       1.585e-01      -2.167e-01       5.021e-05         -0.0146
  89       1.496e-01      -2.167e-01       3.627e-04          0.0067
  90       1.301e-01      -2.167e-01       1.094e-03          0.0402
  91       1.030e-01      -2.167e-01       2.057e-03          0.0702
  92       7.235e-02      -2.167e-01       2.773e-03          0.0292
  93       4.290e-02      -2.167e-01       2.701e-03         -0.1102
  94       1.910e-02      -2.167e-01       1.837e-03         -0.4567
  95       4.567e-03      -2.167e-01       6.061e-04         -2.0901
Strip 12
  96       1.585e-01      -1.833e-01       5.021e-05         -0.0153
  97       1.496e-01      -1.833e-01       3.627e-04          0.0054
  98       1.301e-01      -1.833e-01       1.094e-03          0.0382
  99       1.030e-01      -1.833e-01       2.057e-03          0.0673
 100       7.235e-02      -1.833e-01       2.773e-03          0.0252
 101       4.290e-02      -1.833e-01       2.701e-03         -0.1156
 102       1.910e-02      -1.833e-01       1.837e-03         -0.4649
 103       4.567e-03      -1.833e-01       6.061e-04         -2.1085
Strip 13
 104       1.585e-01      -1.500e-01       5.021e-05         -0.0159
 105       1.496e-01      -1.500e-01       3.627e-04          0.0044
 106       1.301e-01      -1.500e-01       1.094e-03          0.0366
 107       1.030e-01      -1.500e-01       2.057e-03          0.0650
 108       7.235e-02      -1.500e-01       2.773e-03          0.0222
 109       4.290e-02      -1.500e-01       2.701e-03         -0.1196
 110       1.910e-02      -1.500e-01       1.837e-03         -0.4711
 111       4.567e-03      -1.500e-01       6.061e-04         -2.1224
Strip 14
 112       1.585e-01      -1.167e-01       5.021e-05         -0.0164
 113       1.496e-01      -1.167e-01       3.627e-04          0.0036
 114       1.301e-01      -1.167e-01       1.094e-03          0.0354
 115       1.030e-01      -1.167e-01       2.057e-03          0.0634
 116       7.235e-02      -1.167e-01       2.773e-03          0.0200
 117       4.290e-02      -1.167e-01       2.701e-03         -0.1226
 118       1.910e-02      -1.167e-01       1.837e-03         -0.4756
 119       4.567e-03      -1.167e-01       6.061e-04         -2.1326
Strip 15
 120       1.585e-01      -8.333e-02       5.021e-05         -0.0167
 121       1.496e-01      -8.333e-02       3.627e-04          0.0030
 122       1.301e-01      -8.333e-02       1.094e-03          0.0345
 123       1.030e-01      -8.333e-02       2.057e-03          0.0622
 124       7.235e-02      -8.333e-02       2.773e-03          0.0184
 125       4.290e-02      -8.333e-02       2.701e-03         -0.1247
 126       1.910e-02      -8.333e-02       1.837e-03         -0.4788
 127       4.567e-03      -8.333e-02       6.061e-04         -2.1397
Strip 16
 128       1.585e-01      -5.000e-02       5.021e-05         -0.0169
 129       1.496e-01      -5.000e-02       3.627e-04          0.0027
 130       1.301e-01      -5.000e-02       1.094e-03          0.0340
 131       1.030e-01      -5.000e-02       2.057e-03          0.0614
 132       7.235e-02      -5.000e-02       2.773e-03          0.0175
 133       4.290e-02      -5.000e-02       2.701e-03         -0.1260
 134       1.910e-02      -5.000e-02       1.837e-03         -0.4808
 135       4.567e-03      -5.000e-02       6.061e-04         -2.1443
Strip 17
 136       1.585e-01      -1.667e-02       5.021e-05         -0.0170
 137       1.496e-01      -1.667e-02       3.627e-04          0.0025
 138       1.301e-01      -1.667e-02       1.094e-03          0.0337
 139       1.030e-01      -1.667e-02       2.057e-03          0.0611
 140       7.235e-02      -1.667e-02       2.773e-03          0.0170
 141       4.290e-02      -1.667e-02       2.701e-03         -0.1266
 142       1.910e-02      -1.667e-02       1.837e-03         -0.4818
 143       4.567e-03      -1.667e-02       6.061e-04         -2.1466
Strip 18
 144       1.585e-01       1.667e-02       5.021e-05         -0.0170
 145       1.496e-01       1.667e-02       3.627e-04          0.0025
 146       1.301e-01       1.667e-02       1.094e-03          0.0337
 147       1.030e-01       1.667e-02       2.057e-03          0.0611
 148       7.235e-02       1.667e-02       2.773e-03          0.0170
 149       4.290e-02       1.667e-02       2.701e-03         -0.1266
 150       1.910e-02       1.667e-02       1.837e-03         -0.4818
 151       4.567e-03       1.667e-02       6.061e-04         -2.1466
Strip 19
 152       1.585e-01       5.000e-02       5.021e-05         -0.0169
 153       1.496e-01       5.000e-02       3.627e-04          0.0027
 154       1.301e-01       5.000e-02       1.094e-03          0.0340
 155       1.030e-01       5.000e-02       2.057e-03          0.0614
 156       7.235e-02       5.000e-02       2.773e-03          0.0175
 157       4.290e-02       5.000e-02       2.701e-03         -0.1260
 158       1.910e-02       5.000e-02       1.837e-03         -0.4808
 159       4.567e-03       5.000e-02       6.061e-04         -2.1443
Strip 20
 160       1.585e-01       8.333e-02       5.021e-05         -0.0167
 161       1.496e-01       8.333e-02       3.627e-04          0.0030
 162       1.301e-01       8.333e-02       1.094e-03          0.0345
 163       1.030e-01       8.333e-02       2.057e-03          0.0622
 164       7.235e-02       8.333e-02       2.773e-03          0.0184
 165       4.290e-02       8.333e-02       2.701e-03         -0.1247
 166       1.910e-02       8.333e-02       1.837e-03         -0.4788
 167       4.567e-03       8.333e-02       6.061e-04         -2.1397
Strip 21
 168       1.585e-01       1.167e-01       5.021e-05         -0.0164
 169       1.496e-01       1.167e-01       3.627e-04          0.0036
 170       1.301e-01       1.167e-01       1.094e-03          0.0354
 171       1.030e-01       1.167e-01       2.057e-03          0.0634
 172       7.235e-02       1.167e-01       2.773e-03          0.0200
 173       4.290e-02       1.167e-01       2.701e-03         -0.1226
 174       1.910e-02       1.167e-01       1.837e-03         -0.4756
 175       4.567e-03       1.167e-01       6.061e-04         -2.1326
Strip 22
 176       1.585e-01       1.500e-01       5.021e-05         -0.0159
 177       1.496e-01       1.500e-01       3.627e-04          0.0044
 178       1.301e-01       1.500e-01       1.094e-03          0.0366
 179       1.030e-01       1.500e-01       2.057e-03          0.0650
 180       7.235e-02       1.500e-01       2.773e-03          0.0222
 181       4.290e-02       1.500e-01       2.701e-03         -0.1196
 182       1.910e-02       1.500e-01       1.837e-03         -0.4711
 183       4.567e-03       1.500e-01       6.061e-04         -2.1224
Strip 23
 184       1.585e-01       1.833e-01       5.021e-05         -0.0153
 185       1.496e-01       1.833e-01       3.627e-04          0.0054
 186       1.301e-01       1.833e-01       1.094e-03          0.0382
 187       1.030e-01       1.833e-01       2.057e-03          0.0673
 188       7.235e-02       1.833e-01       2.773e-03          0.0252
 189       4.290e-02       1.833e-01       2.701e-03         -0.1156
 190       1.910e-02       1.833e-01       1.837e-03         -0.4649
 191       4.567e-03       1.833e-01       6.061e-04         -2.1085
Strip 24
 192       1.585e-01       2.167e-01       5.021e-05         -0.0146
 193       1.496e-01       2.167e-01       3.627e-04          0.0067
 194       1.301e-01       2.167e-01       1.094e-03          0.0402
 195       1.030e-01       2.167e-01       2.057e-03          0.0702
 196       7.235e-02       2.167e-01       2.773e-03          0.0292
 197       4.290e-02       2.167e-01       2.701e-03         -0.1102
 198       1.910e-02       2.167e-01       1.837e-03         -0.4567
 199       4.567e-03       2.167e-01       6.061e-04         -2.0901
Strip 25
 200       1.585e-01       2.500e-01       5.021e-05         -0.0137
 201       1.496e-01       2.500e-01       3.627e-04          0.0083
 202       1.301e-01       2.500e-01       1.094e-03          0.0428
 203       1.030e-01       2.500e-01       2.057e-03          0.0740
 204       7.235e-02       2.500e-01       2.773e-03          0.0344
 205       4.290e-02       2.500e-01       2.701e-03         -0.1030
 206       1.910e-02       2.500e-01       1.837e-03         -0.4456
 207       4.567e-03       2.500e-01       6.061e-04         -2.0653
Strip 26
 208       1.585e-01       2.833e-01       5.021e-05         -0.0128
 209       1.496e-01       2.833e-01       3.627e-04          0.0101
 210       1.301e-01       2.833e-01       1.094e-03          0.0458
 211       1.030e-01       2.833e-01       2.057e-03          0.0786
 212       7.235e-02       2.833e-01       2.773e-03          0.0413
 213       4.290e-02       2.833e-01       2.701e-03         -0.0931
 214       1.910e-02       2.833e-01       1.837e-03         -0.4303
 215       4.567e-03       2.833e-01       6.061e-04         -2.0314
Strip 27
 216       1.585e-01       3.167e-01       5.021e-05         -0.0118
 217       1.496e-01       3.167e-01       3.627e-04          0.0119
 218       1.301e-01       3.167e-01       1.094e-03          0.0489
 219       1.030e-01       3.167e-01       2.057e-03          0.0840
 220       7.235e-02       3.167e-01       2.773e-03          0.0504
 221       4.290e-02       3.167e-01       2.701e-03         -0.0792
 222       1.910e-02       3.167e-01       1.837e-03         -0.4084
 223       4.567e-03       3.167e-01       6.061e-04         -1.9826
Strip 28
 224       1.585e-01       3.500e-01       5.021e-05         -0.0112
 225       1.496e-01       3.500e-01       3.627e-04          0.0131
 226       1.301e-01       3.500e-01       1.094e-03          0.0511
 227       1.030e-01       3.500e-01       2.057e-03          0.0890
 228       7.235e-02       3.500e-01       2.773e-03          0.0616
 229       4.290e-02       3.500e-01       2.701e-03         -0.0584
 230       1.910e-02       3.500e-01       1.837e-03         -0.3738
 231       4.567e-03       3.500e-01       6.061e-04         -1.9059
Strip 29
 232       1.585e-01       3.833e-01       5.021e-05         -0.0111
 233       1.496e-01       3.833e-01       3.627e-04          0.0129
 234       1.301e-01       3.833e-01       1.094e-03          0.0500
 235       1.030e-01       3.833e-01       2.057e-03          0.0888
 236       7.235e-02       3.833e-01       2.773e-03          0.0711
 237       4.290e-02       3.833e-01       2.701e-03         -0.0272
 238       1.910e-02       3.833e-01       1.837e-03         -0.3100
 239       4.567e-03       3.833e-01       6.061e-04         -1.7599
Strip 30
 240       1.585e-01       4.022e-01       5.012e-05         -0.0086
 241       1.496e-01       4.022e-01       3.620e-04          0.0146
 242       1.301e-01       4.022e-01       1.092e-03          0.0452
 243       1.031e-01       4.022e-01       2.053e-03          0.0760
 244       7.251e-02       4.022e-01       2.768e-03          0.0636
 245       4.311e-02       4.022e-01       2.696e-03         -0.0109
 246       1.935e-02       4.022e-01       1.834e-03         -0.2443
 247       4.849e-03       4.022e-01       6.050e-04         -1.5185
Strip 31
 248       1.585e-01       4.064e-01       4.977e-05         -0.0068
 249       1.497e-01       4.064e-01       3.595e-04          0.0203
 250       1.303e-01       4.064e-01       1.084e-03          0.0485
 251       1.035e-01       4.064e-01       2.039e-03          0.0705
 252       7.312e-02       4.064e-01       2.748e-03          0.0564
 253       4.394e-02       4.064e-01       2.677e-03         -0.0071
 254       2.035e-02       4.064e-01       1.821e-03         -0.2044
 255       5.947e-03       4.064e-01       6.007e-04         -1.3620
Strip 32
 256       1.585e-01       4.102e-01       4.908e-05         -0.0039
 257       1.498e-01       4.102e-01       3.545e-04          0.0275
 258       1.308e-01       4.102e-01       1.069e-03          0.0519
 259       1.042e-01       4.102e-01       2.010e-03          0.0638
 260       7.432e-02       4.102e-01       2.711e-03          0.0477
 261       4.554e-02       4.102e-01       2.640e-03         -0.0061
 262       2.227e-02       4.102e-01       1.795e-03         -0.1650
 263       8.069e-03       4.102e-01       5.924e-04         -1.1893
Strip 33
 264       1.585e-01       4.133e-01       4.811e-05         -0.0001
 265       1.500e-01       4.133e-01       3.475e-04          0.0375
 266       1.313e-01       4.133e-01       1.048e-03          0.0554
 267       1.053e-01       4.133e-01       1.971e-03          0.0554
 268       7.602e-02       4.133e-01       2.657e-03          0.0366
 269       4.780e-02       4.133e-01       2.588e-03         -0.0107
 270       2.500e-02       4.133e-01       1.760e-03         -0.1286
 271       1.108e-02       4.133e-01       5.807e-04         -0.9573
Strip 34
 272       1.586e-01       4.155e-01       4.692e-05         -0.0010
 273       1.503e-01       4.155e-01       3.389e-04          0.0439
 274       1.320e-01       4.155e-01       1.022e-03          0.0544
 275       1.067e-01       4.155e-01       1.922e-03          0.0441
 276       7.809e-02       4.155e-01       2.591e-03          0.0232
 277       5.057e-02       4.155e-01       2.524e-03         -0.0210
 278       2.833e-02       4.155e-01       1.716e-03         -0.1048
 279       1.476e-02       4.155e-01       5.664e-04         -0.5872
Strip 35
 280       1.586e-01       4.166e-01       4.560e-05         -0.3827
 281       1.505e-01       4.166e-01       3.293e-04         -0.1417
 282       1.328e-01       4.166e-01       9.931e-04         -0.0099
 283       1.082e-01       4.166e-01       1.868e-03          0.0206
 284       8.041e-02       4.166e-01       2.518e-03          0.0095
 285       5.367e-02       4.166e-01       2.452e-03         -0.0206
 286       3.205e-02       4.166e-01       1.668e-03         -0.0401
 287       1.886e-02       4.166e-01       5.504e-04         -0.0002
Strip 36
 288       0.000e+00       0.000e+00       0.000e+00          0.0000
 289       0.000e+00       0.000e+00       0.000e+00          0.0000
 290       0.000e+00       0.000e+00       0.000e+00          0.0000
 291       0.000e+00       0.000e+00       0.000e+00          0.0000
 292       0.000e+00       0.000e+00       0.000e+00          0.0000
 293       0.000e+00       0.000e+00       0.000e+00          0.0000
 294       0.000e+00       0.000e+00       0.000e+00          0.0000
 295       0.000e+00       0.000e+00       0.000e+00          0.0000










