XFLR5 v6.02 Beta

 Calculated polar for: SD6060-104-88

 1 1 Reynolds number fixed          Mach number fixed         

 xtrf =   1.000 (top)        1.000 (bottom)
 Mach =   0.000     Re =     0.185 e 6     Ncrit =   9.000

  alpha     CL        CD       CDp       CM    Top Xtr Bot Xtr   Cpmin    Chinge    XCp    
 ------- -------- --------- --------- -------- ------- ------- -------- --------- ---------
  -4.000  -0.2171   0.01703   0.00904  -0.0484  0.9484  0.0177  -2.2146   0.0000   0.0208
  -3.500  -0.1630   0.01527   0.00702  -0.0477  0.9290  0.0184  -1.9266   0.0000  -0.0493
  -3.000  -0.1056   0.01425   0.00575  -0.0474  0.9132  0.0252  -1.6136   0.0000  -0.2078
  -2.500  -0.0648   0.01191   0.00505  -0.0454  0.8952  0.3836  -1.3382   0.0000  -0.4618
  -2.000  -0.0350   0.01079   0.00563  -0.0385  0.8769  0.7912  -1.0417   0.0000  -0.8676
  -1.500   0.0116   0.01137   0.00625  -0.0321  0.8612  0.9152  -0.6819   0.0000   3.0593
  -1.000   0.0867   0.01163   0.00630  -0.0347  0.8488  0.9473  -0.4029   0.0000   0.6527
  -0.500   0.1870   0.01152   0.00602  -0.0432  0.8333  0.9688  -0.4560   0.0000   0.4813
   0.000   0.2759   0.01125   0.00556  -0.0499  0.8177  0.9869  -0.5190   0.0000   0.4303
   0.500   0.3578   0.01093   0.00516  -0.0561  0.7984  1.0000  -0.5866   0.0000   0.4057
   1.000   0.3986   0.01079   0.00490  -0.0536  0.7773  1.0000  -0.6381   0.0000   0.3830
   1.500   0.4414   0.01081   0.00491  -0.0518  0.7564  1.0000  -0.6990   0.0000   0.3654
   2.000   0.4841   0.01073   0.00473  -0.0494  0.7346  1.0000  -0.7678   0.0000   0.3498
   2.500   0.5273   0.01084   0.00483  -0.0473  0.7122  1.0000  -0.8443   0.0000   0.3371
   3.000   0.5709   0.01082   0.00473  -0.0449  0.6874  1.0000  -0.9341   0.0000   0.3255
   3.500   0.6148   0.01094   0.00489  -0.0427  0.6612  1.0000  -1.0489   0.0000   0.3159
   4.000   0.6601   0.01110   0.00491  -0.0404  0.6305  1.0000  -1.1735   0.0000   0.3073
   4.500   0.7045   0.01116   0.00506  -0.0381  0.5978  1.0000  -1.4563   0.0000   0.2998
   5.000   0.7494   0.01136   0.00526  -0.0359  0.5564  1.0000  -1.8176   0.0000   0.2932
   5.500   0.7933   0.01171   0.00594  -0.0334  0.4969  1.0000  -2.3154   0.0000   0.2868
   6.000   0.8353   0.01237   0.00642  -0.0309  0.4253  1.0000  -2.7434   0.0000   0.2813
   6.500   0.8732   0.01350   0.00720  -0.0281  0.3351  1.0000  -3.1596   0.0000   0.2759
   7.000   0.9077   0.01503   0.00828  -0.0254  0.2335  1.0000  -3.5704   0.0000   0.2711
   7.500   0.9357   0.01723   0.00962  -0.0224  0.1144  1.0000  -3.9604   0.0000   0.2665
   8.000   0.9598   0.02014   0.01186  -0.0188  0.0281  1.0000  -4.1853   0.0000   0.2615
   8.500   0.9805   0.02323   0.01517  -0.0141  0.0171  1.0000  -4.3015   0.0000   0.2557
   9.000   1.0040   0.02585   0.01821  -0.0101  0.0163  1.0000  -4.5119   0.0000   0.2509
   9.500   1.0258   0.02851   0.02111  -0.0062  0.0137  1.0000  -4.8351   0.0000   0.2462
  10.000   1.0444   0.03159   0.02441  -0.0026  0.0112  1.0000  -5.2170   0.0000   0.2420
  10.500   1.0561   0.03602   0.02916   0.0009  0.0096  1.0000  -5.5227   0.0000   0.2379
  11.000   1.0577   0.04234   0.03601   0.0045  0.0088  1.0000  -5.6564   0.0000   0.2338
  11.500   1.0456   0.04939   0.04361   0.0071  0.0085  1.0000  -5.6918   0.0000   0.2305
  12.000   1.0254   0.05714   0.05185   0.0077  0.0085  1.0000  -5.6847   0.0000   0.2290
  12.500   1.0004   0.06587   0.06100   0.0059  0.0085  1.0000  -5.6417   0.0000   0.2298
  13.000   0.9729   0.07604   0.07155   0.0015  0.0086  1.0000  -5.5573   0.0000   0.2333
  13.500   0.9447   0.08826   0.08411  -0.0057  0.0088  1.0000  -5.4158   0.0000   0.2401
  14.000   0.9156   0.10309   0.09924  -0.0156  0.0090  1.0000  -5.1735   0.0000   0.2504
  14.500   0.8763   0.12398   0.12041  -0.0292  0.0097  1.0000  -4.5711   0.0000   0.2666
  15.000   0.8197   0.15472   0.15114  -0.0440  0.0124  1.0000  -3.0406   0.0000   0.2879
  15.500   0.8127   0.16901   0.16535  -0.0506  0.0134  1.0000  -2.6496   0.0000   0.2963
  16.000   0.8133   0.18147   0.17777  -0.0559  0.0146  1.0000  -2.4060   0.0000   0.3024


