XFLR5 v6.02 Beta

Rounded tunnel shape
T1-18.0 m/s-Panel-x0.000mm
QInf  =   18.000000 m/s
Alpha =    0.000000
Beta  =    0.000°
Phi   =    0.000°
Ctrl  =    0.000
CL    =    0.109105
Cy    =    0.000000
Cd    =    0.012153     ICd   =    0.000719     PCd   =    0.011434
Cl   = 4.75617e-18
Cm   =  -0.0521886
ICn   =   -0.000000     PCn   =   -0.000000 
XCP   =    0.076538     YCP   =    0.000000 
XNP   =    0.000000
Bend. =    0.248679

Rounded tunnel shape
  y-span        Chord      Ai         Cl        PCd          ICd        CmGeom      CmAirf      XTrtop    XTrBot      XCP       BM
   -0.4176     0.1453    -2.529    0.011672    0.011970    0.000516   -0.042943   -0.015322     0.8694    0.8892    0.4391    0.0000
   -0.4162     0.1495    -0.900    0.022521    0.011713    0.000354   -0.027061   -0.008948     0.8633    0.9210    0.4033    0.0000
   -0.4139     0.1533    -0.860    0.032278    0.011507    0.000484   -0.025031   -0.011727     0.8589    0.9225    0.5069    0.0000
   -0.4107     0.1564    -0.807    0.041248    0.011352    0.000581   -0.025537   -0.014674     0.8548    0.9247    0.6196    0.0000
   -0.4069     0.1586    -0.747    0.049821    0.011259    0.000650   -0.027921   -0.017751     0.8513    0.9276    0.7049    0.0000
   -0.4026     0.1597    -0.688    0.058846    0.011238    0.000706   -0.032187   -0.021226     0.8487    0.9313    0.7414    0.0001
   -0.3833     0.1600    -0.637    0.072778    0.011274    0.000809   -0.037161   -0.023643     0.8458    0.9374    0.6898    0.0006
   -0.3500     0.1600    -0.540    0.088791    0.011310    0.000837   -0.044284   -0.026674     0.8430    0.9434    0.6305    0.0039
   -0.3167     0.1600    -0.469    0.099074    0.011302    0.000812   -0.048581   -0.028235     0.8413    0.9458    0.5984    0.0105
   -0.2833     0.1600    -0.418    0.106193    0.011296    0.000776   -0.051336   -0.029082     0.8402    0.9474    0.5779    0.0206
   -0.2500     0.1600    -0.381    0.111367    0.011291    0.000741   -0.053216   -0.029572     0.8394    0.9486    0.5636    0.0344
   -0.2167     0.1600    -0.353    0.115234    0.011288    0.000711   -0.054557   -0.029873     0.8387    0.9495    0.5534    0.0523
   -0.1833     0.1600    -0.332    0.118158    0.011286    0.000685   -0.055537   -0.030067     0.8382    0.9502    0.5459    0.0743
   -0.1500     0.1600    -0.317    0.120365    0.011284    0.000665   -0.056259   -0.030197     0.8379    0.9507    0.5403    0.1005
   -0.1167     0.1600    -0.305    0.122000    0.011282    0.000649   -0.056785   -0.030283     0.8376    0.9511    0.5363    0.1309
   -0.0833     0.1600    -0.297    0.123158    0.011281    0.000638   -0.057153   -0.030340     0.8374    0.9514    0.5335    0.1658
   -0.0500     0.1600    -0.291    0.123899    0.011281    0.000630   -0.057387   -0.030375     0.8373    0.9515    0.5317    0.2050
   -0.0167     0.1600    -0.289    0.124261    0.011280    0.000627   -0.057500   -0.030392     0.8373    0.9516    0.5308    0.2487
    0.0167     0.1600    -0.289    0.124261    0.011280    0.000627   -0.057500   -0.030392     0.8373    0.9516    0.5308    0.2487
    0.0500     0.1600    -0.291    0.123899    0.011281    0.000630   -0.057387   -0.030375     0.8373    0.9515    0.5317    0.2050
    0.0833     0.1600    -0.297    0.123158    0.011281    0.000638   -0.057153   -0.030340     0.8374    0.9514    0.5335    0.1658
    0.1167     0.1600    -0.305    0.122000    0.011282    0.000649   -0.056785   -0.030283     0.8376    0.9511    0.5363    0.1309
    0.1500     0.1600    -0.317    0.120365    0.011284    0.000665   -0.056259   -0.030197     0.8379    0.9507    0.5403    0.1005
    0.1833     0.1600    -0.332    0.118158    0.011286    0.000685   -0.055537   -0.030067     0.8382    0.9502    0.5459    0.0743
    0.2167     0.1600    -0.353    0.115234    0.011288    0.000711   -0.054557   -0.029873     0.8387    0.9495    0.5534    0.0523
    0.2500     0.1600    -0.381    0.111367    0.011291    0.000741   -0.053216   -0.029572     0.8394    0.9486    0.5636    0.0344
    0.2833     0.1600    -0.418    0.106193    0.011296    0.000776   -0.051336   -0.029082     0.8402    0.9474    0.5779    0.0206
    0.3167     0.1600    -0.469    0.099074    0.011302    0.000812   -0.048581   -0.028235     0.8413    0.9458    0.5984    0.0105
    0.3500     0.1600    -0.540    0.088791    0.011310    0.000837   -0.044284   -0.026674     0.8430    0.9434    0.6305    0.0039
    0.3833     0.1600    -0.637    0.072778    0.011274    0.000809   -0.037161   -0.023643     0.8458    0.9374    0.6898    0.0006
    0.4026     0.1597    -0.688    0.058846    0.011238    0.000706   -0.032187   -0.021226     0.8487    0.9313    0.7414    0.0001
    0.4069     0.1586    -0.747    0.049821    0.011259    0.000650   -0.027921   -0.017751     0.8513    0.9276    0.7049    0.0000
    0.4107     0.1564    -0.807    0.041248    0.011352    0.000581   -0.025537   -0.014674     0.8548    0.9247    0.6196    0.0000
    0.4139     0.1533    -0.860    0.032278    0.011507    0.000484   -0.025031   -0.011727     0.8589    0.9225    0.5069    0.0000
    0.4162     0.1495    -0.900    0.022521    0.011713    0.000354   -0.027061   -0.008948     0.8633    0.9210    0.4033    0.0000
    0.4176     0.1453    -2.529    0.011672    0.011970    0.000516   -0.042943   -0.015322     0.8694    0.8892    0.4391    0.0000


Wing Cp Coefficients
 Panel     CtrlPt.x        CtrlPt.y        CtrlPt.z             Cp
Rounded tunnel shapeCp Coefficients
Strip 1
   8       1.572e-01      -4.166e-01      -9.943e-05         -0.0295
   9       1.466e-01      -4.166e-01      -7.589e-04          0.0081
  10       1.269e-01      -4.166e-01      -2.188e-03         -0.0359
  11       1.013e-01      -4.166e-01      -3.746e-03         -0.0611
  12       7.346e-02      -4.166e-01      -4.652e-03         -0.0874
  13       4.777e-02      -4.166e-01      -4.575e-03         -0.1746
  14       2.812e-02      -4.166e-01      -3.424e-03         -0.3379
  15       1.748e-02      -4.166e-01      -1.398e-03         -0.4201
  16       1.748e-02      -4.166e-01       1.978e-03         -0.5425
  17       2.812e-02      -4.166e-01       6.188e-03         -0.5125
  18       4.777e-02      -4.166e-01       9.148e-03         -0.2805
  19       7.346e-02      -4.166e-01       9.755e-03         -0.1501
  20       1.013e-01      -4.166e-01       7.893e-03         -0.1937
  21       1.269e-01      -4.166e-01       4.621e-03         -0.1334
  22       1.466e-01      -4.166e-01       1.711e-03         -0.0431
  23       1.572e-01      -4.166e-01       2.818e-04         -0.0647
Strip 2
  24       1.572e-01      -4.155e-01      -1.023e-04          0.0462
  25       1.462e-01      -4.155e-01      -7.810e-04          0.0338
  26       1.260e-01      -4.155e-01      -2.252e-03         -0.0261
  27       9.955e-02      -4.155e-01      -3.855e-03         -0.0646
  28       7.094e-02      -4.155e-01      -4.787e-03         -0.0867
  29       4.451e-02      -4.155e-01      -4.708e-03         -0.1138
  30       2.428e-02      -4.155e-01      -3.523e-03         -0.1706
  31       1.334e-02      -4.155e-01      -1.439e-03         -0.1651
  32       1.334e-02      -4.155e-01       2.036e-03         -0.2913
  33       2.428e-02      -4.155e-01       6.368e-03         -0.2410
  34       4.451e-02      -4.155e-01       9.414e-03         -0.1863
  35       7.094e-02      -4.155e-01       1.004e-02         -0.1674
  36       9.955e-02      -4.155e-01       8.122e-03         -0.1245
  37       1.260e-01      -4.155e-01       4.755e-03         -0.0483
  38       1.462e-01      -4.155e-01       1.761e-03          0.0017
  39       1.572e-01      -4.155e-01       2.900e-04          0.0016
Strip 3
  40       1.571e-01      -4.133e-01      -1.049e-04          0.0955
  41       1.459e-01      -4.133e-01      -8.008e-04          0.0532
  42       1.251e-01      -4.133e-01      -2.309e-03         -0.0187
  43       9.802e-02      -4.133e-01      -3.953e-03         -0.0675
  44       6.868e-02      -4.133e-01      -4.908e-03         -0.0934
  45       4.158e-02      -4.133e-01      -4.828e-03         -0.1219
  46       2.084e-02      -4.133e-01      -3.613e-03         -0.1797
  47       9.617e-03      -4.133e-01      -1.475e-03         -0.1149
  48       9.617e-03      -4.133e-01       2.087e-03          0.0143
  49       2.084e-02      -4.133e-01       6.530e-03         -0.1853
  50       4.158e-02      -4.133e-01       9.652e-03         -0.2050
  51       6.868e-02      -4.133e-01       1.029e-02         -0.1867
  52       9.802e-02      -4.133e-01       8.328e-03         -0.1310
  53       1.251e-01      -4.133e-01       4.876e-03         -0.0464
  54       1.459e-01      -4.133e-01       1.806e-03          0.0325
  55       1.571e-01      -4.133e-01       2.974e-04          0.0800
Strip 4
  56       1.570e-01      -4.102e-01      -1.070e-04          0.1184
  57       1.456e-01      -4.102e-01      -8.169e-04          0.0679
  58       1.244e-01      -4.102e-01      -2.356e-03         -0.0120
  59       9.676e-02      -4.102e-01      -4.033e-03         -0.0684
  60       6.684e-02      -4.102e-01      -5.007e-03         -0.0994
  61       3.919e-02      -4.102e-01      -4.925e-03         -0.1348
  62       1.803e-02      -4.102e-01      -3.686e-03         -0.1862
  63       6.581e-03      -4.102e-01      -1.505e-03         -0.1426
  64       6.581e-03      -4.102e-01       2.129e-03          0.2577
  65       1.803e-02      -4.102e-01       6.662e-03         -0.1798
  66       3.919e-02      -4.102e-01       9.847e-03         -0.2312
  67       6.684e-02      -4.102e-01       1.050e-02         -0.2058
  68       9.676e-02      -4.102e-01       8.496e-03         -0.1391
  69       1.244e-01      -4.102e-01       4.974e-03         -0.0424
  70       1.456e-01      -4.102e-01       1.842e-03          0.0536
  71       1.570e-01      -4.102e-01       3.034e-04          0.1092
Strip 5
  72       1.570e-01      -4.064e-01      -1.085e-04          0.1326
  73       1.454e-01      -4.064e-01      -8.283e-04          0.0785
  74       1.239e-01      -4.064e-01      -2.389e-03         -0.0063
  75       9.588e-02      -4.064e-01      -4.089e-03         -0.0687
  76       6.554e-02      -4.064e-01      -5.077e-03         -0.1056
  77       3.751e-02      -4.064e-01      -4.994e-03         -0.1444
  78       1.605e-02      -4.064e-01      -3.737e-03         -0.1905
  79       4.438e-03      -4.064e-01      -1.526e-03         -0.1827
  80       4.438e-03      -4.064e-01       2.159e-03          0.4222
  81       1.605e-02      -4.064e-01       6.755e-03         -0.1835
  82       3.751e-02      -4.064e-01       9.985e-03         -0.2546
  83       6.554e-02      -4.064e-01       1.065e-02         -0.2250
  84       9.588e-02      -4.064e-01       8.615e-03         -0.1480
  85       1.239e-01      -4.064e-01       5.043e-03         -0.0415
  86       1.454e-01      -4.064e-01       1.868e-03          0.0642
  87       1.570e-01      -4.064e-01       3.076e-04          0.1233
Strip 6
  88       1.570e-01      -4.022e-01      -1.093e-04          0.1379
  89       1.453e-01      -4.022e-01      -8.342e-04          0.0864
  90       1.237e-01      -4.022e-01      -2.406e-03          0.0017
  91       9.542e-02      -4.022e-01      -4.118e-03         -0.0679
  92       6.487e-02      -4.022e-01      -5.113e-03         -0.1106
  93       3.663e-02      -4.022e-01      -5.030e-03         -0.1510
  94       1.502e-02      -4.022e-01      -3.764e-03         -0.1953
  95       3.329e-03      -4.022e-01      -1.537e-03         -0.2228
  96       3.329e-03      -4.022e-01       2.174e-03          0.5178
  97       1.502e-02      -4.022e-01       6.803e-03         -0.1922
  98       3.663e-02      -4.022e-01       1.006e-02         -0.2750
  99       6.487e-02      -4.022e-01       1.072e-02         -0.2423
 100       9.542e-02      -4.022e-01       8.677e-03         -0.1569
 101       1.237e-01      -4.022e-01       5.079e-03         -0.0437
 102       1.453e-01      -4.022e-01       1.881e-03          0.0653
 103       1.570e-01      -4.022e-01       3.098e-04          0.1245
Strip 7
 104       1.570e-01      -3.833e-01      -1.095e-04          0.1629
 105       1.452e-01      -3.833e-01      -8.358e-04          0.1029
 106       1.236e-01      -3.833e-01      -2.410e-03          0.0044
 107       9.531e-02      -3.833e-01      -4.126e-03         -0.0770
 108       6.469e-02      -3.833e-01      -5.123e-03         -0.1289
 109       3.641e-02      -3.833e-01      -5.039e-03         -0.1765
 110       1.476e-02      -3.833e-01      -3.771e-03         -0.2337
 111       3.045e-03      -3.833e-01      -1.540e-03         -0.3037
 112       3.045e-03      -3.833e-01       2.178e-03          0.5723
 113       1.476e-02      -3.833e-01       6.815e-03         -0.2388
 114       3.641e-02      -3.833e-01       1.007e-02         -0.3360
 115       6.469e-02      -3.833e-01       1.074e-02         -0.2944
 116       9.531e-02      -3.833e-01       8.692e-03         -0.1860
 117       1.236e-01      -3.833e-01       5.089e-03         -0.0434
 118       1.452e-01      -3.833e-01       1.885e-03          0.0909
 119       1.570e-01      -3.833e-01       3.104e-04          0.1631
Strip 8
 120       1.570e-01      -3.500e-01      -1.095e-04          0.1719
 121       1.452e-01      -3.500e-01      -8.358e-04          0.1105
 122       1.236e-01      -3.500e-01      -2.410e-03          0.0074
 123       9.531e-02      -3.500e-01      -4.126e-03         -0.0829
 124       6.469e-02      -3.500e-01      -5.123e-03         -0.1422
 125       3.641e-02      -3.500e-01      -5.039e-03         -0.1912
 126       1.476e-02      -3.500e-01      -3.771e-03         -0.2416
 127       3.045e-03      -3.500e-01      -1.540e-03         -0.3049
 128       3.045e-03      -3.500e-01       2.178e-03          0.5722
 129       1.476e-02      -3.500e-01       6.815e-03         -0.2585
 130       3.641e-02      -3.500e-01       1.007e-02         -0.3753
 131       6.469e-02      -3.500e-01       1.074e-02         -0.3353
 132       9.531e-02      -3.500e-01       8.692e-03         -0.2124
 133       1.236e-01      -3.500e-01       5.089e-03         -0.0511
 134       1.452e-01      -3.500e-01       1.885e-03          0.0948
 135       1.570e-01      -3.500e-01       3.104e-04          0.1717
Strip 9
 136       1.570e-01      -3.167e-01      -1.095e-04          0.1737
 137       1.452e-01      -3.167e-01      -8.358e-04          0.1121
 138       1.236e-01      -3.167e-01      -2.410e-03          0.0079
 139       9.531e-02      -3.167e-01      -4.126e-03         -0.0848
 140       6.469e-02      -3.167e-01      -5.123e-03         -0.1459
 141       3.641e-02      -3.167e-01      -5.039e-03         -0.1943
 142       1.476e-02      -3.167e-01      -3.771e-03         -0.2414
 143       3.045e-03      -3.167e-01      -1.540e-03         -0.2935
 144       3.045e-03      -3.167e-01       2.178e-03          0.5633
 145       1.476e-02      -3.167e-01       6.815e-03         -0.2720
 146       3.641e-02      -3.167e-01       1.007e-02         -0.3926
 147       6.469e-02      -3.167e-01       1.074e-02         -0.3534
 148       9.531e-02      -3.167e-01       8.692e-03         -0.2259
 149       1.236e-01      -3.167e-01       5.089e-03         -0.0577
 150       1.452e-01      -3.167e-01       1.885e-03          0.0934
 151       1.570e-01      -3.167e-01       3.104e-04          0.1727
Strip 10
 152       1.570e-01      -2.833e-01      -1.095e-04          0.1740
 153       1.452e-01      -2.833e-01      -8.358e-04          0.1124
 154       1.236e-01      -2.833e-01      -2.410e-03          0.0080
 155       9.531e-02      -2.833e-01      -4.126e-03         -0.0854
 156       6.469e-02      -2.833e-01      -5.123e-03         -0.1469
 157       3.641e-02      -2.833e-01      -5.039e-03         -0.1946
 158       1.476e-02      -2.833e-01      -3.771e-03         -0.2391
 159       3.045e-03      -2.833e-01      -1.540e-03         -0.2811
 160       3.045e-03      -2.833e-01       2.178e-03          0.5546
 161       1.476e-02      -2.833e-01       6.815e-03         -0.2818
 162       3.641e-02      -2.833e-01       1.007e-02         -0.4027
 163       6.469e-02      -2.833e-01       1.074e-02         -0.3634
 164       9.531e-02      -2.833e-01       8.692e-03         -0.2336
 165       1.236e-01      -2.833e-01       5.089e-03         -0.0621
 166       1.452e-01      -2.833e-01       1.885e-03          0.0917
 167       1.570e-01      -2.833e-01       3.104e-04          0.1723
Strip 11
 168       1.570e-01      -2.500e-01      -1.095e-04          0.1739
 169       1.452e-01      -2.500e-01      -8.358e-04          0.1124
 170       1.236e-01      -2.500e-01      -2.410e-03          0.0080
 171       9.531e-02      -2.500e-01      -4.126e-03         -0.0855
 172       6.469e-02      -2.500e-01      -5.123e-03         -0.1469
 173       3.641e-02      -2.500e-01      -5.039e-03         -0.1939
 174       1.476e-02      -2.500e-01      -3.771e-03         -0.2366
 175       3.045e-03      -2.500e-01      -1.540e-03         -0.2701
 176       3.045e-03      -2.500e-01       2.178e-03          0.5470
 177       1.476e-02      -2.500e-01       6.815e-03         -0.2890
 178       3.641e-02      -2.500e-01       1.007e-02         -0.4092
 179       6.469e-02      -2.500e-01       1.074e-02         -0.3694
 180       9.531e-02      -2.500e-01       8.692e-03         -0.2383
 181       1.236e-01      -2.500e-01       5.089e-03         -0.0650
 182       1.452e-01      -2.500e-01       1.885e-03          0.0903
 183       1.570e-01      -2.500e-01       3.104e-04          0.1718
Strip 12
 184       1.570e-01      -2.167e-01      -1.095e-04          0.1737
 185       1.452e-01      -2.167e-01      -8.358e-04          0.1123
 186       1.236e-01      -2.167e-01      -2.410e-03          0.0080
 187       9.531e-02      -2.167e-01      -4.126e-03         -0.0854
 188       6.469e-02      -2.167e-01      -5.123e-03         -0.1465
 189       3.641e-02      -2.167e-01      -5.039e-03         -0.1930
 190       1.476e-02      -2.167e-01      -3.771e-03         -0.2341
 191       3.045e-03      -2.167e-01      -1.540e-03         -0.2609
 192       3.045e-03      -2.167e-01       2.178e-03          0.5408
 193       1.476e-02      -2.167e-01       6.815e-03         -0.2944
 194       3.641e-02      -2.167e-01       1.007e-02         -0.4138
 195       6.469e-02      -2.167e-01       1.074e-02         -0.3734
 196       9.531e-02      -2.167e-01       8.692e-03         -0.2414
 197       1.236e-01      -2.167e-01       5.089e-03         -0.0670
 198       1.452e-01      -2.167e-01       1.885e-03          0.0893
 199       1.570e-01      -2.167e-01       3.104e-04          0.1713
Strip 13
 200       1.570e-01      -1.833e-01      -1.095e-04          0.1736
 201       1.452e-01      -1.833e-01      -8.358e-04          0.1123
 202       1.236e-01      -1.833e-01      -2.410e-03          0.0081
 203       9.531e-02      -1.833e-01      -4.126e-03         -0.0852
 204       6.469e-02      -1.833e-01      -5.123e-03         -0.1461
 205       3.641e-02      -1.833e-01      -5.039e-03         -0.1921
 206       1.476e-02      -1.833e-01      -3.771e-03         -0.2320
 207       3.045e-03      -1.833e-01      -1.540e-03         -0.2535
 208       3.045e-03      -1.833e-01       2.178e-03          0.5359
 209       1.476e-02      -1.833e-01       6.815e-03         -0.2986
 210       3.641e-02      -1.833e-01       1.007e-02         -0.4170
 211       6.469e-02      -1.833e-01       1.074e-02         -0.3762
 212       9.531e-02      -1.833e-01       8.692e-03         -0.2435
 213       1.236e-01      -1.833e-01       5.089e-03         -0.0683
 214       1.452e-01      -1.833e-01       1.885e-03          0.0886
 215       1.570e-01      -1.833e-01       3.104e-04          0.1708
Strip 14
 216       1.570e-01      -1.500e-01      -1.095e-04          0.1734
 217       1.452e-01      -1.500e-01      -8.358e-04          0.1122
 218       1.236e-01      -1.500e-01      -2.410e-03          0.0081
 219       9.531e-02      -1.500e-01      -4.126e-03         -0.0850
 220       6.469e-02      -1.500e-01      -5.123e-03         -0.1457
 221       3.641e-02      -1.500e-01      -5.039e-03         -0.1913
 222       1.476e-02      -1.500e-01      -3.771e-03         -0.2303
 223       3.045e-03      -1.500e-01      -1.540e-03         -0.2476
 224       3.045e-03      -1.500e-01       2.178e-03          0.5319
 225       1.476e-02      -1.500e-01       6.815e-03         -0.3017
 226       3.641e-02      -1.500e-01       1.007e-02         -0.4194
 227       6.469e-02      -1.500e-01       1.074e-02         -0.3781
 228       9.531e-02      -1.500e-01       8.692e-03         -0.2450
 229       1.236e-01      -1.500e-01       5.089e-03         -0.0693
 230       1.452e-01      -1.500e-01       1.885e-03          0.0880
 231       1.570e-01      -1.500e-01       3.104e-04          0.1705
Strip 15
 232       1.570e-01      -1.167e-01      -1.095e-04          0.1733
 233       1.452e-01      -1.167e-01      -8.358e-04          0.1122
 234       1.236e-01      -1.167e-01      -2.410e-03          0.0082
 235       9.531e-02      -1.167e-01      -4.126e-03         -0.0848
 236       6.469e-02      -1.167e-01      -5.123e-03         -0.1454
 237       3.641e-02      -1.167e-01      -5.039e-03         -0.1907
 238       1.476e-02      -1.167e-01      -3.771e-03         -0.2290
 239       3.045e-03      -1.167e-01      -1.540e-03         -0.2431
 240       3.045e-03      -1.167e-01       2.178e-03          0.5289
 241       1.476e-02      -1.167e-01       6.815e-03         -0.3040
 242       3.641e-02      -1.167e-01       1.007e-02         -0.4211
 243       6.469e-02      -1.167e-01       1.074e-02         -0.3795
 244       9.531e-02      -1.167e-01       8.692e-03         -0.2460
 245       1.236e-01      -1.167e-01       5.089e-03         -0.0700
 246       1.452e-01      -1.167e-01       1.885e-03          0.0876
 247       1.570e-01      -1.167e-01       3.104e-04          0.1703
Strip 16
 248       1.570e-01      -8.333e-02      -1.095e-04          0.1733
 249       1.452e-01      -8.333e-02      -8.358e-04          0.1121
 250       1.236e-01      -8.333e-02      -2.410e-03          0.0082
 251       9.531e-02      -8.333e-02      -4.126e-03         -0.0847
 252       6.469e-02      -8.333e-02      -5.123e-03         -0.1451
 253       3.641e-02      -8.333e-02      -5.039e-03         -0.1902
 254       1.476e-02      -8.333e-02      -3.771e-03         -0.2280
 255       3.045e-03      -8.333e-02      -1.540e-03         -0.2399
 256       3.045e-03      -8.333e-02       2.178e-03          0.5268
 257       1.476e-02      -8.333e-02       6.815e-03         -0.3057
 258       3.641e-02      -8.333e-02       1.007e-02         -0.4223
 259       6.469e-02      -8.333e-02       1.074e-02         -0.3804
 260       9.531e-02      -8.333e-02       8.692e-03         -0.2467
 261       1.236e-01      -8.333e-02       5.089e-03         -0.0704
 262       1.452e-01      -8.333e-02       1.885e-03          0.0874
 263       1.570e-01      -8.333e-02       3.104e-04          0.1702
Strip 17
 264       1.570e-01      -5.000e-02      -1.095e-04          0.1732
 265       1.452e-01      -5.000e-02      -8.358e-04          0.1121
 266       1.236e-01      -5.000e-02      -2.410e-03          0.0083
 267       9.531e-02      -5.000e-02      -4.126e-03         -0.0846
 268       6.469e-02      -5.000e-02      -5.123e-03         -0.1450
 269       3.641e-02      -5.000e-02      -5.039e-03         -0.1899
 270       1.476e-02      -5.000e-02      -3.771e-03         -0.2273
 271       3.045e-03      -5.000e-02      -1.540e-03         -0.2378
 272       3.045e-03      -5.000e-02       2.178e-03          0.5254
 273       1.476e-02      -5.000e-02       6.815e-03         -0.3067
 274       3.641e-02      -5.000e-02       1.007e-02         -0.4231
 275       6.469e-02      -5.000e-02       1.074e-02         -0.3810
 276       9.531e-02      -5.000e-02       8.692e-03         -0.2472
 277       1.236e-01      -5.000e-02       5.089e-03         -0.0707
 278       1.452e-01      -5.000e-02       1.885e-03          0.0872
 279       1.570e-01      -5.000e-02       3.104e-04          0.1701
Strip 18
 280       1.570e-01      -1.667e-02      -1.095e-04          0.1732
 281       1.452e-01      -1.667e-02      -8.358e-04          0.1121
 282       1.236e-01      -1.667e-02      -2.410e-03          0.0083
 283       9.531e-02      -1.667e-02      -4.126e-03         -0.0846
 284       6.469e-02      -1.667e-02      -5.123e-03         -0.1449
 285       3.641e-02      -1.667e-02      -5.039e-03         -0.1898
 286       1.476e-02      -1.667e-02      -3.771e-03         -0.2270
 287       3.045e-03      -1.667e-02      -1.540e-03         -0.2368
 288       3.045e-03      -1.667e-02       2.178e-03          0.5247
 289       1.476e-02      -1.667e-02       6.815e-03         -0.3073
 290       3.641e-02      -1.667e-02       1.007e-02         -0.4234
 291       6.469e-02      -1.667e-02       1.074e-02         -0.3813
 292       9.531e-02      -1.667e-02       8.692e-03         -0.2474
 293       1.236e-01      -1.667e-02       5.089e-03         -0.0709
 294       1.452e-01      -1.667e-02       1.885e-03          0.0871
 295       1.570e-01      -1.667e-02       3.104e-04          0.1700
Strip 19
 296       1.570e-01       1.667e-02      -1.095e-04          0.1732
 297       1.452e-01       1.667e-02      -8.358e-04          0.1121
 298       1.236e-01       1.667e-02      -2.410e-03          0.0083
 299       9.531e-02       1.667e-02      -4.126e-03         -0.0846
 300       6.469e-02       1.667e-02      -5.123e-03         -0.1449
 301       3.641e-02       1.667e-02      -5.039e-03         -0.1898
 302       1.476e-02       1.667e-02      -3.771e-03         -0.2270
 303       3.045e-03       1.667e-02      -1.540e-03         -0.2368
 304       3.045e-03       1.667e-02       2.178e-03          0.5247
 305       1.476e-02       1.667e-02       6.815e-03         -0.3073
 306       3.641e-02       1.667e-02       1.007e-02         -0.4234
 307       6.469e-02       1.667e-02       1.074e-02         -0.3813
 308       9.531e-02       1.667e-02       8.692e-03         -0.2474
 309       1.236e-01       1.667e-02       5.089e-03         -0.0709
 310       1.452e-01       1.667e-02       1.885e-03          0.0871
 311       1.570e-01       1.667e-02       3.104e-04          0.1700
Strip 20
 312       1.570e-01       5.000e-02      -1.095e-04          0.1732
 313       1.452e-01       5.000e-02      -8.358e-04          0.1121
 314       1.236e-01       5.000e-02      -2.410e-03          0.0083
 315       9.531e-02       5.000e-02      -4.126e-03         -0.0846
 316       6.469e-02       5.000e-02      -5.123e-03         -0.1450
 317       3.641e-02       5.000e-02      -5.039e-03         -0.1899
 318       1.476e-02       5.000e-02      -3.771e-03         -0.2273
 319       3.045e-03       5.000e-02      -1.540e-03         -0.2378
 320       3.045e-03       5.000e-02       2.178e-03          0.5254
 321       1.476e-02       5.000e-02       6.815e-03         -0.3067
 322       3.641e-02       5.000e-02       1.007e-02         -0.4231
 323       6.469e-02       5.000e-02       1.074e-02         -0.3810
 324       9.531e-02       5.000e-02       8.692e-03         -0.2472
 325       1.236e-01       5.000e-02       5.089e-03         -0.0707
 326       1.452e-01       5.000e-02       1.885e-03          0.0872
 327       1.570e-01       5.000e-02       3.104e-04          0.1701
Strip 21
 328       1.570e-01       8.333e-02      -1.095e-04          0.1733
 329       1.452e-01       8.333e-02      -8.358e-04          0.1121
 330       1.236e-01       8.333e-02      -2.410e-03          0.0082
 331       9.531e-02       8.333e-02      -4.126e-03         -0.0847
 332       6.469e-02       8.333e-02      -5.123e-03         -0.1451
 333       3.641e-02       8.333e-02      -5.039e-03         -0.1902
 334       1.476e-02       8.333e-02      -3.771e-03         -0.2280
 335       3.045e-03       8.333e-02      -1.540e-03         -0.2399
 336       3.045e-03       8.333e-02       2.178e-03          0.5268
 337       1.476e-02       8.333e-02       6.815e-03         -0.3057
 338       3.641e-02       8.333e-02       1.007e-02         -0.4223
 339       6.469e-02       8.333e-02       1.074e-02         -0.3804
 340       9.531e-02       8.333e-02       8.692e-03         -0.2467
 341       1.236e-01       8.333e-02       5.089e-03         -0.0704
 342       1.452e-01       8.333e-02       1.885e-03          0.0874
 343       1.570e-01       8.333e-02       3.104e-04          0.1702
Strip 22
 344       1.570e-01       1.167e-01      -1.095e-04          0.1733
 345       1.452e-01       1.167e-01      -8.358e-04          0.1122
 346       1.236e-01       1.167e-01      -2.410e-03          0.0082
 347       9.531e-02       1.167e-01      -4.126e-03         -0.0848
 348       6.469e-02       1.167e-01      -5.123e-03         -0.1454
 349       3.641e-02       1.167e-01      -5.039e-03         -0.1907
 350       1.476e-02       1.167e-01      -3.771e-03         -0.2290
 351       3.045e-03       1.167e-01      -1.540e-03         -0.2431
 352       3.045e-03       1.167e-01       2.178e-03          0.5289
 353       1.476e-02       1.167e-01       6.815e-03         -0.3040
 354       3.641e-02       1.167e-01       1.007e-02         -0.4211
 355       6.469e-02       1.167e-01       1.074e-02         -0.3795
 356       9.531e-02       1.167e-01       8.692e-03         -0.2460
 357       1.236e-01       1.167e-01       5.089e-03         -0.0700
 358       1.452e-01       1.167e-01       1.885e-03          0.0876
 359       1.570e-01       1.167e-01       3.104e-04          0.1703
Strip 23
 360       1.570e-01       1.500e-01      -1.095e-04          0.1734
 361       1.452e-01       1.500e-01      -8.358e-04          0.1122
 362       1.236e-01       1.500e-01      -2.410e-03          0.0081
 363       9.531e-02       1.500e-01      -4.126e-03         -0.0850
 364       6.469e-02       1.500e-01      -5.123e-03         -0.1457
 365       3.641e-02       1.500e-01      -5.039e-03         -0.1913
 366       1.476e-02       1.500e-01      -3.771e-03         -0.2303
 367       3.045e-03       1.500e-01      -1.540e-03         -0.2476
 368       3.045e-03       1.500e-01       2.178e-03          0.5319
 369       1.476e-02       1.500e-01       6.815e-03         -0.3017
 370       3.641e-02       1.500e-01       1.007e-02         -0.4194
 371       6.469e-02       1.500e-01       1.074e-02         -0.3781
 372       9.531e-02       1.500e-01       8.692e-03         -0.2450
 373       1.236e-01       1.500e-01       5.089e-03         -0.0693
 374       1.452e-01       1.500e-01       1.885e-03          0.0880
 375       1.570e-01       1.500e-01       3.104e-04          0.1705
Strip 24
 376       1.570e-01       1.833e-01      -1.095e-04          0.1736
 377       1.452e-01       1.833e-01      -8.358e-04          0.1123
 378       1.236e-01       1.833e-01      -2.410e-03          0.0081
 379       9.531e-02       1.833e-01      -4.126e-03         -0.0852
 380       6.469e-02       1.833e-01      -5.123e-03         -0.1461
 381       3.641e-02       1.833e-01      -5.039e-03         -0.1921
 382       1.476e-02       1.833e-01      -3.771e-03         -0.2320
 383       3.045e-03       1.833e-01      -1.540e-03         -0.2535
 384       3.045e-03       1.833e-01       2.178e-03          0.5359
 385       1.476e-02       1.833e-01       6.815e-03         -0.2986
 386       3.641e-02       1.833e-01       1.007e-02         -0.4170
 387       6.469e-02       1.833e-01       1.074e-02         -0.3762
 388       9.531e-02       1.833e-01       8.692e-03         -0.2435
 389       1.236e-01       1.833e-01       5.089e-03         -0.0683
 390       1.452e-01       1.833e-01       1.885e-03          0.0886
 391       1.570e-01       1.833e-01       3.104e-04          0.1708
Strip 25
 392       1.570e-01       2.167e-01      -1.095e-04          0.1737
 393       1.452e-01       2.167e-01      -8.358e-04          0.1123
 394       1.236e-01       2.167e-01      -2.410e-03          0.0080
 395       9.531e-02       2.167e-01      -4.126e-03         -0.0854
 396       6.469e-02       2.167e-01      -5.123e-03         -0.1465
 397       3.641e-02       2.167e-01      -5.039e-03         -0.1930
 398       1.476e-02       2.167e-01      -3.771e-03         -0.2341
 399       3.045e-03       2.167e-01      -1.540e-03         -0.2609
 400       3.045e-03       2.167e-01       2.178e-03          0.5408
 401       1.476e-02       2.167e-01       6.815e-03         -0.2944
 402       3.641e-02       2.167e-01       1.007e-02         -0.4138
 403       6.469e-02       2.167e-01       1.074e-02         -0.3734
 404       9.531e-02       2.167e-01       8.692e-03         -0.2414
 405       1.236e-01       2.167e-01       5.089e-03         -0.0670
 406       1.452e-01       2.167e-01       1.885e-03          0.0893
 407       1.570e-01       2.167e-01       3.104e-04          0.1713
Strip 26
 408       1.570e-01       2.500e-01      -1.095e-04          0.1739
 409       1.452e-01       2.500e-01      -8.358e-04          0.1124
 410       1.236e-01       2.500e-01      -2.410e-03          0.0080
 411       9.531e-02       2.500e-01      -4.126e-03         -0.0855
 412       6.469e-02       2.500e-01      -5.123e-03         -0.1469
 413       3.641e-02       2.500e-01      -5.039e-03         -0.1939
 414       1.476e-02       2.500e-01      -3.771e-03         -0.2366
 415       3.045e-03       2.500e-01      -1.540e-03         -0.2701
 416       3.045e-03       2.500e-01       2.178e-03          0.5470
 417       1.476e-02       2.500e-01       6.815e-03         -0.2890
 418       3.641e-02       2.500e-01       1.007e-02         -0.4092
 419       6.469e-02       2.500e-01       1.074e-02         -0.3694
 420       9.531e-02       2.500e-01       8.692e-03         -0.2383
 421       1.236e-01       2.500e-01       5.089e-03         -0.0650
 422       1.452e-01       2.500e-01       1.885e-03          0.0903
 423       1.570e-01       2.500e-01       3.104e-04          0.1718
Strip 27
 424       1.570e-01       2.833e-01      -1.095e-04          0.1740
 425       1.452e-01       2.833e-01      -8.358e-04          0.1124
 426       1.236e-01       2.833e-01      -2.410e-03          0.0080
 427       9.531e-02       2.833e-01      -4.126e-03         -0.0854
 428       6.469e-02       2.833e-01      -5.123e-03         -0.1469
 429       3.641e-02       2.833e-01      -5.039e-03         -0.1946
 430       1.476e-02       2.833e-01      -3.771e-03         -0.2391
 431       3.045e-03       2.833e-01      -1.540e-03         -0.2811
 432       3.045e-03       2.833e-01       2.178e-03          0.5546
 433       1.476e-02       2.833e-01       6.815e-03         -0.2818
 434       3.641e-02       2.833e-01       1.007e-02         -0.4027
 435       6.469e-02       2.833e-01       1.074e-02         -0.3634
 436       9.531e-02       2.833e-01       8.692e-03         -0.2336
 437       1.236e-01       2.833e-01       5.089e-03         -0.0621
 438       1.452e-01       2.833e-01       1.885e-03          0.0917
 439       1.570e-01       2.833e-01       3.104e-04          0.1723
Strip 28
 440       1.570e-01       3.167e-01      -1.095e-04          0.1737
 441       1.452e-01       3.167e-01      -8.358e-04          0.1121
 442       1.236e-01       3.167e-01      -2.410e-03          0.0079
 443       9.531e-02       3.167e-01      -4.126e-03         -0.0848
 444       6.469e-02       3.167e-01      -5.123e-03         -0.1459
 445       3.641e-02       3.167e-01      -5.039e-03         -0.1943
 446       1.476e-02       3.167e-01      -3.771e-03         -0.2414
 447       3.045e-03       3.167e-01      -1.540e-03         -0.2935
 448       3.045e-03       3.167e-01       2.178e-03          0.5633
 449       1.476e-02       3.167e-01       6.815e-03         -0.2720
 450       3.641e-02       3.167e-01       1.007e-02         -0.3926
 451       6.469e-02       3.167e-01       1.074e-02         -0.3534
 452       9.531e-02       3.167e-01       8.692e-03         -0.2259
 453       1.236e-01       3.167e-01       5.089e-03         -0.0577
 454       1.452e-01       3.167e-01       1.885e-03          0.0934
 455       1.570e-01       3.167e-01       3.104e-04          0.1727
Strip 29
 456       1.570e-01       3.500e-01      -1.095e-04          0.1719
 457       1.452e-01       3.500e-01      -8.358e-04          0.1105
 458       1.236e-01       3.500e-01      -2.410e-03          0.0074
 459       9.531e-02       3.500e-01      -4.126e-03         -0.0829
 460       6.469e-02       3.500e-01      -5.123e-03         -0.1422
 461       3.641e-02       3.500e-01      -5.039e-03         -0.1912
 462       1.476e-02       3.500e-01      -3.771e-03         -0.2416
 463       3.045e-03       3.500e-01      -1.540e-03         -0.3049
 464       3.045e-03       3.500e-01       2.178e-03          0.5722
 465       1.476e-02       3.500e-01       6.815e-03         -0.2585
 466       3.641e-02       3.500e-01       1.007e-02         -0.3753
 467       6.469e-02       3.500e-01       1.074e-02         -0.3353
 468       9.531e-02       3.500e-01       8.692e-03         -0.2124
 469       1.236e-01       3.500e-01       5.089e-03         -0.0511
 470       1.452e-01       3.500e-01       1.885e-03          0.0948
 471       1.570e-01       3.500e-01       3.104e-04          0.1717
Strip 30
 472       1.570e-01       3.833e-01      -1.095e-04          0.1629
 473       1.452e-01       3.833e-01      -8.358e-04          0.1029
 474       1.236e-01       3.833e-01      -2.410e-03          0.0044
 475       9.531e-02       3.833e-01      -4.126e-03         -0.0770
 476       6.469e-02       3.833e-01      -5.123e-03         -0.1289
 477       3.641e-02       3.833e-01      -5.039e-03         -0.1765
 478       1.476e-02       3.833e-01      -3.771e-03         -0.2337
 479       3.045e-03       3.833e-01      -1.540e-03         -0.3037
 480       3.045e-03       3.833e-01       2.178e-03          0.5723
 481       1.476e-02       3.833e-01       6.815e-03         -0.2388
 482       3.641e-02       3.833e-01       1.007e-02         -0.3360
 483       6.469e-02       3.833e-01       1.074e-02         -0.2944
 484       9.531e-02       3.833e-01       8.692e-03         -0.1860
 485       1.236e-01       3.833e-01       5.089e-03         -0.0434
 486       1.452e-01       3.833e-01       1.885e-03          0.0909
 487       1.570e-01       3.833e-01       3.104e-04          0.1631
Strip 31
 488       1.570e-01       4.022e-01      -1.093e-04          0.1379
 489       1.453e-01       4.022e-01      -8.342e-04          0.0864
 490       1.237e-01       4.022e-01      -2.406e-03          0.0017
 491       9.542e-02       4.022e-01      -4.118e-03         -0.0679
 492       6.487e-02       4.022e-01      -5.113e-03         -0.1106
 493       3.663e-02       4.022e-01      -5.030e-03         -0.1510
 494       1.502e-02       4.022e-01      -3.764e-03         -0.1953
 495       3.329e-03       4.022e-01      -1.537e-03         -0.2228
 496       3.329e-03       4.022e-01       2.174e-03          0.5178
 497       1.502e-02       4.022e-01       6.803e-03         -0.1922
 498       3.663e-02       4.022e-01       1.006e-02         -0.2750
 499       6.487e-02       4.022e-01       1.072e-02         -0.2423
 500       9.542e-02       4.022e-01       8.677e-03         -0.1569
 501       1.237e-01       4.022e-01       5.079e-03         -0.0437
 502       1.453e-01       4.022e-01       1.881e-03          0.0653
 503       1.570e-01       4.022e-01       3.098e-04          0.1245
Strip 32
 504       1.570e-01       4.064e-01      -1.085e-04          0.1326
 505       1.454e-01       4.064e-01      -8.283e-04          0.0785
 506       1.239e-01       4.064e-01      -2.389e-03         -0.0063
 507       9.588e-02       4.064e-01      -4.089e-03         -0.0687
 508       6.554e-02       4.064e-01      -5.077e-03         -0.1056
 509       3.751e-02       4.064e-01      -4.994e-03         -0.1444
 510       1.605e-02       4.064e-01      -3.737e-03         -0.1905
 511       4.438e-03       4.064e-01      -1.526e-03         -0.1827
 512       4.438e-03       4.064e-01       2.159e-03          0.4222
 513       1.605e-02       4.064e-01       6.755e-03         -0.1835
 514       3.751e-02       4.064e-01       9.985e-03         -0.2546
 515       6.554e-02       4.064e-01       1.065e-02         -0.2250
 516       9.588e-02       4.064e-01       8.615e-03         -0.1480
 517       1.239e-01       4.064e-01       5.043e-03         -0.0415
 518       1.454e-01       4.064e-01       1.868e-03          0.0642
 519       1.570e-01       4.064e-01       3.076e-04          0.1233
Strip 33
 520       1.570e-01       4.102e-01      -1.070e-04          0.1184
 521       1.456e-01       4.102e-01      -8.169e-04          0.0679
 522       1.244e-01       4.102e-01      -2.356e-03         -0.0120
 523       9.676e-02       4.102e-01      -4.033e-03         -0.0684
 524       6.684e-02       4.102e-01      -5.007e-03         -0.0994
 525       3.919e-02       4.102e-01      -4.925e-03         -0.1348
 526       1.803e-02       4.102e-01      -3.686e-03         -0.1862
 527       6.581e-03       4.102e-01      -1.505e-03         -0.1426
 528       6.581e-03       4.102e-01       2.129e-03          0.2577
 529       1.803e-02       4.102e-01       6.662e-03         -0.1798
 530       3.919e-02       4.102e-01       9.847e-03         -0.2312
 531       6.684e-02       4.102e-01       1.050e-02         -0.2058
 532       9.676e-02       4.102e-01       8.496e-03         -0.1391
 533       1.244e-01       4.102e-01       4.974e-03         -0.0424
 534       1.456e-01       4.102e-01       1.842e-03          0.0536
 535       1.570e-01       4.102e-01       3.034e-04          0.1092
Strip 34
 536       1.571e-01       4.133e-01      -1.049e-04          0.0955
 537       1.459e-01       4.133e-01      -8.008e-04          0.0532
 538       1.251e-01       4.133e-01      -2.309e-03         -0.0187
 539       9.802e-02       4.133e-01      -3.953e-03         -0.0675
 540       6.868e-02       4.133e-01      -4.908e-03         -0.0934
 541       4.158e-02       4.133e-01      -4.828e-03         -0.1219
 542       2.084e-02       4.133e-01      -3.613e-03         -0.1797
 543       9.617e-03       4.133e-01      -1.475e-03         -0.1149
 544       9.617e-03       4.133e-01       2.087e-03          0.0143
 545       2.084e-02       4.133e-01       6.530e-03         -0.1853
 546       4.158e-02       4.133e-01       9.652e-03         -0.2050
 547       6.868e-02       4.133e-01       1.029e-02         -0.1867
 548       9.802e-02       4.133e-01       8.328e-03         -0.1310
 549       1.251e-01       4.133e-01       4.876e-03         -0.0464
 550       1.459e-01       4.133e-01       1.806e-03          0.0325
 551       1.571e-01       4.133e-01       2.974e-04          0.0800
Strip 35
 552       1.572e-01       4.155e-01      -1.023e-04          0.0462
 553       1.462e-01       4.155e-01      -7.810e-04          0.0338
 554       1.260e-01       4.155e-01      -2.252e-03         -0.0261
 555       9.955e-02       4.155e-01      -3.855e-03         -0.0646
 556       7.094e-02       4.155e-01      -4.787e-03         -0.0867
 557       4.451e-02       4.155e-01      -4.708e-03         -0.1138
 558       2.428e-02       4.155e-01      -3.523e-03         -0.1706
 559       1.334e-02       4.155e-01      -1.439e-03         -0.1651
 560       1.334e-02       4.155e-01       2.036e-03         -0.2913
 561       2.428e-02       4.155e-01       6.368e-03         -0.2410
 562       4.451e-02       4.155e-01       9.414e-03         -0.1863
 563       7.094e-02       4.155e-01       1.004e-02         -0.1674
 564       9.955e-02       4.155e-01       8.122e-03         -0.1245
 565       1.260e-01       4.155e-01       4.755e-03         -0.0483
 566       1.462e-01       4.155e-01       1.761e-03          0.0017
 567       1.572e-01       4.155e-01       2.900e-04          0.0016
Strip 36
 568       1.572e-01       4.166e-01      -9.943e-05         -0.0295
 569       1.466e-01       4.166e-01      -7.589e-04          0.0081
 570       1.269e-01       4.166e-01      -2.188e-03         -0.0359
 571       1.013e-01       4.166e-01      -3.746e-03         -0.0611
 572       7.346e-02       4.166e-01      -4.652e-03         -0.0874
 573       4.777e-02       4.166e-01      -4.575e-03         -0.1746
 574       2.812e-02       4.166e-01      -3.424e-03         -0.3379
 575       1.748e-02       4.166e-01      -1.398e-03         -0.4201
 576       1.748e-02       4.166e-01       1.978e-03         -0.5425
 577       2.812e-02       4.166e-01       6.188e-03         -0.5125
 578       4.777e-02       4.166e-01       9.148e-03         -0.2805
 579       7.346e-02       4.166e-01       9.755e-03         -0.1501
 580       1.013e-01       4.166e-01       7.893e-03         -0.1937
 581       1.269e-01       4.166e-01       4.621e-03         -0.1334
 582       1.466e-01       4.166e-01       1.711e-03         -0.0431
 583       1.572e-01       4.166e-01       2.818e-04         -0.0647










