XFLR5 v6.02 Beta

Rounded tunnel shape
T1-18.0 m/s-VLM1-x0.000mm
QInf  =   18.000000 m/s
Alpha =    0.000000
Beta  =    0.000°
Phi   =    0.000°
Ctrl  =    0.000
CL    =    0.099725
Cy    =    0.000000
Cd    =    0.011925     ICd   =    0.000612     PCd   =    0.011312
Cl   = -2.23898e-20
Cm   =  -0.0595794
ICn   =    0.000000     PCn   =    0.000000 
XCP   =    0.095481     YCP   =    0.000000 
XNP   =    0.000000
Bend. =    0.228634

Rounded tunnel shape
  y-span        Chord      Ai         Cl        PCd          ICd        CmGeom      CmAirf      XTrtop    XTrBot      XCP       BM
   -0.4176     0.1453    -1.441    0.000070    0.011953   -0.000479   -0.000602    0.003886     0.8733    0.8328   -0.0551    0.0000
   -0.4162     0.1495    -1.412    0.041913    0.011753    0.001171   -0.025533   -0.016270     0.8606    0.9279    0.8132    0.0000
   -0.4139     0.1533    -1.346    0.039698    0.011527    0.001464   -0.029425   -0.018907     0.8577    0.9254    0.7787    0.0000
   -0.4107     0.1564    -1.304    0.043623    0.011360    0.001124   -0.032433   -0.020909     0.8543    0.9257    0.7460    0.0000
   -0.4069     0.1586    -1.289    0.049134    0.011257    0.000863   -0.035398   -0.022827     0.8514    0.9273    0.7207    0.0001
   -0.4026     0.1597    -1.275    0.055351    0.011226    0.000400   -0.038474   -0.024588     0.8493    0.9297    0.6963    0.0001
   -0.3833     0.1600    -1.166    0.068266    0.011258    0.000715   -0.046259   -0.029179     0.8466    0.9354    0.6774    0.0006
   -0.3500     0.1600    -0.988    0.082634    0.011306    0.000719   -0.053375   -0.032702     0.8441    0.9416    0.6457    0.0038
   -0.3167     0.1600    -0.856    0.091798    0.011308    0.000688   -0.057318   -0.034355     0.8425    0.9441    0.6242    0.0099
   -0.2833     0.1600    -0.760    0.098109    0.011302    0.000652   -0.059750   -0.035210     0.8415    0.9456    0.6089    0.0193
   -0.2500     0.1600    -0.690    0.102680    0.011299    0.000619   -0.061375   -0.035691     0.8408    0.9466    0.5976    0.0322
   -0.2167     0.1600    -0.638    0.106088    0.011296    0.000591   -0.062519   -0.035983     0.8402    0.9474    0.5892    0.0486
   -0.1833     0.1600    -0.599    0.108662    0.011294    0.000569   -0.063349   -0.036170     0.8398    0.9480    0.5829    0.0688
   -0.1500     0.1600    -0.570    0.110604    0.011292    0.000551   -0.063959   -0.036294     0.8395    0.9485    0.5781    0.0929
   -0.1167     0.1600    -0.549    0.112041    0.011291    0.000537   -0.064402   -0.036378     0.8392    0.9488    0.5747    0.1209
   -0.0833     0.1600    -0.534    0.113058    0.011290    0.000527   -0.064711   -0.036433     0.8391    0.9490    0.5722    0.1528
   -0.0500     0.1600    -0.524    0.113710    0.011289    0.000520   -0.064907   -0.036467     0.8390    0.9492    0.5707    0.1887
   -0.0167     0.1600    -0.519    0.114028    0.011289    0.000517   -0.065003   -0.036483     0.8389    0.9493    0.5699    0.2286
    0.0167     0.1600    -0.519    0.114028    0.011289    0.000517   -0.065003   -0.036483     0.8389    0.9493    0.5699    0.2286
    0.0500     0.1600    -0.524    0.113710    0.011289    0.000520   -0.064907   -0.036467     0.8390    0.9492    0.5707    0.1887
    0.0833     0.1600    -0.534    0.113058    0.011290    0.000527   -0.064711   -0.036433     0.8391    0.9490    0.5722    0.1528
    0.1167     0.1600    -0.549    0.112041    0.011291    0.000537   -0.064402   -0.036378     0.8392    0.9488    0.5747    0.1209
    0.1500     0.1600    -0.570    0.110604    0.011292    0.000551   -0.063959   -0.036294     0.8395    0.9485    0.5781    0.0929
    0.1833     0.1600    -0.599    0.108662    0.011294    0.000569   -0.063349   -0.036170     0.8398    0.9480    0.5829    0.0688
    0.2167     0.1600    -0.638    0.106088    0.011296    0.000591   -0.062519   -0.035983     0.8402    0.9474    0.5892    0.0486
    0.2500     0.1600    -0.690    0.102680    0.011299    0.000619   -0.061375   -0.035691     0.8408    0.9466    0.5976    0.0322
    0.2833     0.1600    -0.760    0.098109    0.011302    0.000652   -0.059750   -0.035210     0.8415    0.9456    0.6089    0.0193
    0.3167     0.1600    -0.856    0.091798    0.011308    0.000688   -0.057318   -0.034355     0.8425    0.9441    0.6242    0.0099
    0.3500     0.1600    -0.988    0.082634    0.011306    0.000719   -0.053375   -0.032702     0.8441    0.9416    0.6457    0.0038
    0.3833     0.1600    -1.166    0.068266    0.011258    0.000715   -0.046259   -0.029179     0.8466    0.9354    0.6774    0.0006
    0.4026     0.1597    -1.275    0.055351    0.011226    0.000400   -0.038474   -0.024588     0.8493    0.9297    0.6963    0.0001
    0.4069     0.1586    -1.289    0.049134    0.011257    0.000863   -0.035398   -0.022827     0.8514    0.9273    0.7207    0.0001
    0.4107     0.1564    -1.304    0.043623    0.011360    0.001124   -0.032433   -0.020909     0.8543    0.9257    0.7460    0.0000
    0.4139     0.1533    -1.346    0.039698    0.011527    0.001464   -0.029425   -0.018907     0.8577    0.9254    0.7787    0.0000
    0.4162     0.1495    -1.412    0.041913    0.011753    0.001171   -0.025533   -0.016270     0.8606    0.9279    0.8132    0.0000



Wing Cp Coefficients
 Panel     CtrlPt.x        CtrlPt.y        CtrlPt.z             Cp
Rounded tunnel shapeCp Coefficients
Strip 1
   8       1.586e-01      -4.155e-01       4.692e-05          0.0189
   9       1.503e-01      -4.155e-01       3.389e-04          0.0514
  10       1.320e-01      -4.155e-01       1.022e-03          0.0620
  11       1.067e-01      -4.155e-01       1.922e-03          0.0540
  12       7.809e-02      -4.155e-01       2.591e-03          0.0557
  13       5.057e-02      -4.155e-01       2.524e-03          0.0439
  14       2.833e-02      -4.155e-01       1.716e-03          0.0047
  15       1.476e-02      -4.155e-01       5.664e-04         -0.3377
Strip 2
  16       1.585e-01      -4.133e-01       4.811e-05          0.0156
  17       1.500e-01      -4.133e-01       3.475e-04          0.0475
  18       1.313e-01      -4.133e-01       1.048e-03          0.0652
  19       1.053e-01      -4.133e-01       1.971e-03          0.0732
  20       7.602e-02      -4.133e-01       2.657e-03          0.0789
  21       4.780e-02      -4.133e-01       2.588e-03          0.0680
  22       2.500e-02      -4.133e-01       1.760e-03          0.0216
  23       1.108e-02      -4.133e-01       5.807e-04         -0.5524
Strip 3
  24       1.585e-01      -4.102e-01       4.908e-05          0.0093
  25       1.498e-01      -4.102e-01       3.545e-04          0.0413
  26       1.308e-01      -4.102e-01       1.069e-03          0.0684
  27       1.042e-01      -4.102e-01       2.010e-03          0.0914
  28       7.432e-02      -4.102e-01       2.711e-03          0.1009
  29       4.554e-02      -4.102e-01       2.640e-03          0.0889
  30       2.227e-02      -4.102e-01       1.795e-03          0.0250
  31       8.069e-03      -4.102e-01       5.924e-04         -0.6888
Strip 4
  32       1.585e-01      -4.064e-01       4.977e-05          0.0043
  33       1.497e-01      -4.064e-01       3.595e-04          0.0367
  34       1.303e-01      -4.064e-01       1.084e-03          0.0721
  35       1.035e-01      -4.064e-01       2.039e-03          0.1085
  36       7.312e-02      -4.064e-01       2.748e-03          0.1214
  37       4.394e-02      -4.064e-01       2.677e-03          0.1062
  38       2.035e-02      -4.064e-01       1.821e-03          0.0232
  39       5.947e-03      -4.064e-01       6.007e-04         -0.7845
Strip 5
  40       1.585e-01      -4.022e-01       5.012e-05         -0.0011
  41       1.496e-01      -4.022e-01       3.620e-04          0.0323
  42       1.301e-01      -4.022e-01       1.092e-03          0.0758
  43       1.031e-01      -4.022e-01       2.053e-03          0.1253
  44       7.251e-02      -4.022e-01       2.768e-03          0.1419
  45       4.311e-02      -4.022e-01       2.696e-03          0.1222
  46       1.935e-02      -4.022e-01       1.834e-03          0.0208
  47       4.849e-03      -4.022e-01       6.050e-04         -0.8585
Strip 6
  48       1.585e-01      -3.833e-01       5.021e-05          0.0034
  49       1.496e-01      -3.833e-01       3.627e-04          0.0389
  50       1.301e-01      -3.833e-01       1.094e-03          0.0909
  51       1.030e-01      -3.833e-01       2.057e-03          0.1515
  52       7.235e-02      -3.833e-01       2.773e-03          0.1709
  53       4.290e-02      -3.833e-01       2.701e-03          0.1427
  54       1.910e-02      -3.833e-01       1.837e-03          0.0159
  55       4.567e-03      -3.833e-01       6.061e-04         -0.9488
Strip 7
  56       1.585e-01      -3.500e-01       5.021e-05          0.0082
  57       1.496e-01      -3.500e-01       3.627e-04          0.0481
  58       1.301e-01      -3.500e-01       1.094e-03          0.1066
  59       1.030e-01      -3.500e-01       2.057e-03          0.1735
  60       7.235e-02      -3.500e-01       2.773e-03          0.1928
  61       4.290e-02      -3.500e-01       2.701e-03          0.1560
  62       1.910e-02      -3.500e-01       1.837e-03          0.0186
  63       4.567e-03      -3.500e-01       6.061e-04         -0.9530
Strip 8
  64       1.585e-01      -3.167e-01       5.021e-05          0.0113
  65       1.496e-01      -3.167e-01       3.627e-04          0.0538
  66       1.301e-01      -3.167e-01       1.094e-03          0.1154
  67       1.030e-01      -3.167e-01       2.057e-03          0.1847
  68       7.235e-02      -3.167e-01       2.773e-03          0.2036
  69       4.290e-02      -3.167e-01       2.701e-03          0.1645
  70       1.910e-02      -3.167e-01       1.837e-03          0.0263
  71       4.567e-03      -3.167e-01       6.061e-04         -0.9388
Strip 9
  72       1.585e-01      -2.833e-01       5.021e-05          0.0134
  73       1.496e-01      -2.833e-01       3.627e-04          0.0575
  74       1.301e-01      -2.833e-01       1.094e-03          0.1207
  75       1.030e-01      -2.833e-01       2.057e-03          0.1911
  76       7.235e-02      -2.833e-01       2.773e-03          0.2102
  77       4.290e-02      -2.833e-01       2.701e-03          0.1709
  78       1.910e-02      -2.833e-01       1.837e-03          0.0339
  79       4.567e-03      -2.833e-01       6.061e-04         -0.9231
Strip 10
  80       1.585e-01      -2.500e-01       5.021e-05          0.0147
  81       1.496e-01      -2.500e-01       3.627e-04          0.0598
  82       1.301e-01      -2.500e-01       1.094e-03          0.1241
  83       1.030e-01      -2.500e-01       2.057e-03          0.1953
  84       7.235e-02      -2.500e-01       2.773e-03          0.2148
  85       4.290e-02      -2.500e-01       2.701e-03          0.1758
  86       1.910e-02      -2.500e-01       1.837e-03          0.0404
  87       4.567e-03      -2.500e-01       6.061e-04         -0.9093
Strip 11
  88       1.585e-01      -2.167e-01       5.021e-05          0.0156
  89       1.496e-01      -2.167e-01       3.627e-04          0.0614
  90       1.301e-01      -2.167e-01       1.094e-03          0.1265
  91       1.030e-01      -2.167e-01       2.057e-03          0.1982
  92       7.235e-02      -2.167e-01       2.773e-03          0.2180
  93       4.290e-02      -2.167e-01       2.701e-03          0.1796
  94       1.910e-02      -2.167e-01       1.837e-03          0.0457
  95       4.567e-03      -2.167e-01       6.061e-04         -0.8977
Strip 12
  96       1.585e-01      -1.833e-01       5.021e-05          0.0163
  97       1.496e-01      -1.833e-01       3.627e-04          0.0626
  98       1.301e-01      -1.833e-01       1.094e-03          0.1281
  99       1.030e-01      -1.833e-01       2.057e-03          0.2002
 100       7.235e-02      -1.833e-01       2.773e-03          0.2205
 101       4.290e-02      -1.833e-01       2.701e-03          0.1825
 102       1.910e-02      -1.833e-01       1.837e-03          0.0499
 103       4.567e-03      -1.833e-01       6.061e-04         -0.8884
Strip 13
 104       1.585e-01      -1.500e-01       5.021e-05          0.0168
 105       1.496e-01      -1.500e-01       3.627e-04          0.0634
 106       1.301e-01      -1.500e-01       1.094e-03          0.1293
 107       1.030e-01      -1.500e-01       2.057e-03          0.2017
 108       7.235e-02      -1.500e-01       2.773e-03          0.2223
 109       4.290e-02      -1.500e-01       2.701e-03          0.1847
 110       1.910e-02      -1.500e-01       1.837e-03          0.0532
 111       4.567e-03      -1.500e-01       6.061e-04         -0.8811
Strip 14
 112       1.585e-01      -1.167e-01       5.021e-05          0.0171
 113       1.496e-01      -1.167e-01       3.627e-04          0.0639
 114       1.301e-01      -1.167e-01       1.094e-03          0.1301
 115       1.030e-01      -1.167e-01       2.057e-03          0.2028
 116       7.235e-02      -1.167e-01       2.773e-03          0.2236
 117       4.290e-02      -1.167e-01       2.701e-03          0.1864
 118       1.910e-02      -1.167e-01       1.837e-03          0.0557
 119       4.567e-03      -1.167e-01       6.061e-04         -0.8755
Strip 15
 120       1.585e-01      -8.333e-02       5.021e-05          0.0173
 121       1.496e-01      -8.333e-02       3.627e-04          0.0643
 122       1.301e-01      -8.333e-02       1.094e-03          0.1307
 123       1.030e-01      -8.333e-02       2.057e-03          0.2036
 124       7.235e-02      -8.333e-02       2.773e-03          0.2246
 125       4.290e-02      -8.333e-02       2.701e-03          0.1876
 126       1.910e-02      -8.333e-02       1.837e-03          0.0575
 127       4.567e-03      -8.333e-02       6.061e-04         -0.8715
Strip 16
 128       1.585e-01      -5.000e-02       5.021e-05          0.0175
 129       1.496e-01      -5.000e-02       3.627e-04          0.0646
 130       1.301e-01      -5.000e-02       1.094e-03          0.1311
 131       1.030e-01      -5.000e-02       2.057e-03          0.2041
 132       7.235e-02      -5.000e-02       2.773e-03          0.2252
 133       4.290e-02      -5.000e-02       2.701e-03          0.1884
 134       1.910e-02      -5.000e-02       1.837e-03          0.0587
 135       4.567e-03      -5.000e-02       6.061e-04         -0.8689
Strip 17
 136       1.585e-01      -1.667e-02       5.021e-05          0.0175
 137       1.496e-01      -1.667e-02       3.627e-04          0.0647
 138       1.301e-01      -1.667e-02       1.094e-03          0.1312
 139       1.030e-01      -1.667e-02       2.057e-03          0.2043
 140       7.235e-02      -1.667e-02       2.773e-03          0.2254
 141       4.290e-02      -1.667e-02       2.701e-03          0.1888
 142       1.910e-02      -1.667e-02       1.837e-03          0.0592
 143       4.567e-03      -1.667e-02       6.061e-04         -0.8676
Strip 18
 144       1.585e-01       1.667e-02       5.021e-05          0.0175
 145       1.496e-01       1.667e-02       3.627e-04          0.0647
 146       1.301e-01       1.667e-02       1.094e-03          0.1312
 147       1.030e-01       1.667e-02       2.057e-03          0.2043
 148       7.235e-02       1.667e-02       2.773e-03          0.2254
 149       4.290e-02       1.667e-02       2.701e-03          0.1888
 150       1.910e-02       1.667e-02       1.837e-03          0.0592
 151       4.567e-03       1.667e-02       6.061e-04         -0.8676
Strip 19
 152       1.585e-01       5.000e-02       5.021e-05          0.0175
 153       1.496e-01       5.000e-02       3.627e-04          0.0646
 154       1.301e-01       5.000e-02       1.094e-03          0.1311
 155       1.030e-01       5.000e-02       2.057e-03          0.2041
 156       7.235e-02       5.000e-02       2.773e-03          0.2252
 157       4.290e-02       5.000e-02       2.701e-03          0.1884
 158       1.910e-02       5.000e-02       1.837e-03          0.0587
 159       4.567e-03       5.000e-02       6.061e-04         -0.8689
Strip 20
 160       1.585e-01       8.333e-02       5.021e-05          0.0173
 161       1.496e-01       8.333e-02       3.627e-04          0.0643
 162       1.301e-01       8.333e-02       1.094e-03          0.1307
 163       1.030e-01       8.333e-02       2.057e-03          0.2036
 164       7.235e-02       8.333e-02       2.773e-03          0.2246
 165       4.290e-02       8.333e-02       2.701e-03          0.1876
 166       1.910e-02       8.333e-02       1.837e-03          0.0575
 167       4.567e-03       8.333e-02       6.061e-04         -0.8715
Strip 21
 168       1.585e-01       1.167e-01       5.021e-05          0.0171
 169       1.496e-01       1.167e-01       3.627e-04          0.0639
 170       1.301e-01       1.167e-01       1.094e-03          0.1301
 171       1.030e-01       1.167e-01       2.057e-03          0.2028
 172       7.235e-02       1.167e-01       2.773e-03          0.2236
 173       4.290e-02       1.167e-01       2.701e-03          0.1864
 174       1.910e-02       1.167e-01       1.837e-03          0.0557
 175       4.567e-03       1.167e-01       6.061e-04         -0.8755
Strip 22
 176       1.585e-01       1.500e-01       5.021e-05          0.0168
 177       1.496e-01       1.500e-01       3.627e-04          0.0634
 178       1.301e-01       1.500e-01       1.094e-03          0.1293
 179       1.030e-01       1.500e-01       2.057e-03          0.2017
 180       7.235e-02       1.500e-01       2.773e-03          0.2223
 181       4.290e-02       1.500e-01       2.701e-03          0.1847
 182       1.910e-02       1.500e-01       1.837e-03          0.0532
 183       4.567e-03       1.500e-01       6.061e-04         -0.8811
Strip 23
 184       1.585e-01       1.833e-01       5.021e-05          0.0163
 185       1.496e-01       1.833e-01       3.627e-04          0.0626
 186       1.301e-01       1.833e-01       1.094e-03          0.1281
 187       1.030e-01       1.833e-01       2.057e-03          0.2002
 188       7.235e-02       1.833e-01       2.773e-03          0.2205
 189       4.290e-02       1.833e-01       2.701e-03          0.1825
 190       1.910e-02       1.833e-01       1.837e-03          0.0499
 191       4.567e-03       1.833e-01       6.061e-04         -0.8884
Strip 24
 192       1.585e-01       2.167e-01       5.021e-05          0.0156
 193       1.496e-01       2.167e-01       3.627e-04          0.0614
 194       1.301e-01       2.167e-01       1.094e-03          0.1265
 195       1.030e-01       2.167e-01       2.057e-03          0.1982
 196       7.235e-02       2.167e-01       2.773e-03          0.2180
 197       4.290e-02       2.167e-01       2.701e-03          0.1796
 198       1.910e-02       2.167e-01       1.837e-03          0.0457
 199       4.567e-03       2.167e-01       6.061e-04         -0.8977
Strip 25
 200       1.585e-01       2.500e-01       5.021e-05          0.0147
 201       1.496e-01       2.500e-01       3.627e-04          0.0598
 202       1.301e-01       2.500e-01       1.094e-03          0.1241
 203       1.030e-01       2.500e-01       2.057e-03          0.1953
 204       7.235e-02       2.500e-01       2.773e-03          0.2148
 205       4.290e-02       2.500e-01       2.701e-03          0.1758
 206       1.910e-02       2.500e-01       1.837e-03          0.0404
 207       4.567e-03       2.500e-01       6.061e-04         -0.9093
Strip 26
 208       1.585e-01       2.833e-01       5.021e-05          0.0134
 209       1.496e-01       2.833e-01       3.627e-04          0.0575
 210       1.301e-01       2.833e-01       1.094e-03          0.1207
 211       1.030e-01       2.833e-01       2.057e-03          0.1911
 212       7.235e-02       2.833e-01       2.773e-03          0.2102
 213       4.290e-02       2.833e-01       2.701e-03          0.1709
 214       1.910e-02       2.833e-01       1.837e-03          0.0339
 215       4.567e-03       2.833e-01       6.061e-04         -0.9231
Strip 27
 216       1.585e-01       3.167e-01       5.021e-05          0.0113
 217       1.496e-01       3.167e-01       3.627e-04          0.0538
 218       1.301e-01       3.167e-01       1.094e-03          0.1154
 219       1.030e-01       3.167e-01       2.057e-03          0.1847
 220       7.235e-02       3.167e-01       2.773e-03          0.2036
 221       4.290e-02       3.167e-01       2.701e-03          0.1645
 222       1.910e-02       3.167e-01       1.837e-03          0.0263
 223       4.567e-03       3.167e-01       6.061e-04         -0.9388
Strip 28
 224       1.585e-01       3.500e-01       5.021e-05          0.0082
 225       1.496e-01       3.500e-01       3.627e-04          0.0481
 226       1.301e-01       3.500e-01       1.094e-03          0.1066
 227       1.030e-01       3.500e-01       2.057e-03          0.1735
 228       7.235e-02       3.500e-01       2.773e-03          0.1928
 229       4.290e-02       3.500e-01       2.701e-03          0.1560
 230       1.910e-02       3.500e-01       1.837e-03          0.0186
 231       4.567e-03       3.500e-01       6.061e-04         -0.9530
Strip 29
 232       1.585e-01       3.833e-01       5.021e-05          0.0034
 233       1.496e-01       3.833e-01       3.627e-04          0.0389
 234       1.301e-01       3.833e-01       1.094e-03          0.0909
 235       1.030e-01       3.833e-01       2.057e-03          0.1515
 236       7.235e-02       3.833e-01       2.773e-03          0.1709
 237       4.290e-02       3.833e-01       2.701e-03          0.1427
 238       1.910e-02       3.833e-01       1.837e-03          0.0159
 239       4.567e-03       3.833e-01       6.061e-04         -0.9488
Strip 30
 240       1.585e-01       4.022e-01       5.012e-05         -0.0011
 241       1.496e-01       4.022e-01       3.620e-04          0.0323
 242       1.301e-01       4.022e-01       1.092e-03          0.0758
 243       1.031e-01       4.022e-01       2.053e-03          0.1253
 244       7.251e-02       4.022e-01       2.768e-03          0.1419
 245       4.311e-02       4.022e-01       2.696e-03          0.1222
 246       1.935e-02       4.022e-01       1.834e-03          0.0208
 247       4.849e-03       4.022e-01       6.050e-04         -0.8585
Strip 31
 248       1.585e-01       4.064e-01       4.977e-05          0.0043
 249       1.497e-01       4.064e-01       3.595e-04          0.0367
 250       1.303e-01       4.064e-01       1.084e-03          0.0721
 251       1.035e-01       4.064e-01       2.039e-03          0.1085
 252       7.312e-02       4.064e-01       2.748e-03          0.1214
 253       4.394e-02       4.064e-01       2.677e-03          0.1062
 254       2.035e-02       4.064e-01       1.821e-03          0.0232
 255       5.947e-03       4.064e-01       6.007e-04         -0.7845
Strip 32
 256       1.585e-01       4.102e-01       4.908e-05          0.0093
 257       1.498e-01       4.102e-01       3.545e-04          0.0413
 258       1.308e-01       4.102e-01       1.069e-03          0.0684
 259       1.042e-01       4.102e-01       2.010e-03          0.0914
 260       7.432e-02       4.102e-01       2.711e-03          0.1009
 261       4.554e-02       4.102e-01       2.640e-03          0.0889
 262       2.227e-02       4.102e-01       1.795e-03          0.0250
 263       8.069e-03       4.102e-01       5.924e-04         -0.6888
Strip 33
 264       1.585e-01       4.133e-01       4.811e-05          0.0156
 265       1.500e-01       4.133e-01       3.475e-04          0.0475
 266       1.313e-01       4.133e-01       1.048e-03          0.0652
 267       1.053e-01       4.133e-01       1.971e-03          0.0732
 268       7.602e-02       4.133e-01       2.657e-03          0.0789
 269       4.780e-02       4.133e-01       2.588e-03          0.0680
 270       2.500e-02       4.133e-01       1.760e-03          0.0216
 271       1.108e-02       4.133e-01       5.807e-04         -0.5524
Strip 34
 272       1.586e-01       4.155e-01       4.692e-05          0.0189
 273       1.503e-01       4.155e-01       3.389e-04          0.0514
 274       1.320e-01       4.155e-01       1.022e-03          0.0620
 275       1.067e-01       4.155e-01       1.922e-03          0.0540
 276       7.809e-02       4.155e-01       2.591e-03          0.0557
 277       5.057e-02       4.155e-01       2.524e-03          0.0439
 278       2.833e-02       4.155e-01       1.716e-03          0.0047
 279       1.476e-02       4.155e-01       5.664e-04         -0.3377
Strip 35
 280       1.586e-01       4.166e-01       4.560e-05         -0.2303
 281       1.505e-01       4.166e-01       3.293e-04         -0.0587
 282       1.328e-01       4.166e-01       9.931e-04          0.0501
 283       1.082e-01       4.166e-01       1.868e-03          0.0427
 284       8.041e-02       4.166e-01       2.518e-03          0.0333
 285       5.367e-02       4.166e-01       2.452e-03          0.0225
 286       3.205e-02       4.166e-01       1.668e-03         -0.0041
 287       1.886e-02       4.166e-01       5.504e-04          0.0231
Strip 36
 288       0.000e+00       0.000e+00       0.000e+00          0.0000
 289       0.000e+00       0.000e+00       0.000e+00          0.0000
 290       0.000e+00       0.000e+00       0.000e+00          0.0000
 291       0.000e+00       0.000e+00       0.000e+00          0.0000
 292       0.000e+00       0.000e+00       0.000e+00          0.0000
 293       0.000e+00       0.000e+00       0.000e+00          0.0000
 294       0.000e+00       0.000e+00       0.000e+00          0.0000
 295       0.000e+00       0.000e+00       0.000e+00          0.0000










