XFLR5 v6.02 Beta

Rounded tunnel shape
T1-18.0 m/s-Panel-x0.000mm
QInf  =   18.000000 m/s
Alpha =    3.000000
Beta  =    0.000°
Phi   =    0.000°
Ctrl  =    0.000
CL    =    0.324813
Cy    =    0.000000
Cd    =    0.017303     ICd   =    0.006321     PCd   =    0.010982
Cl   =  2.3889e-17
Cm   =   -0.103774
ICn   =   -0.000000     PCn   =   -0.000000 
XCP   =    0.050589     YCP   =   -0.000000 
XNP   =    0.000000
Bend. =    0.733491

Rounded tunnel shape
  y-span        Chord      Ai         Cl        PCd          ICd        CmGeom      CmAirf      XTrtop    XTrBot      XCP       BM
   -0.4176     0.1453    -7.025    0.032926    0.011986    0.004084   -0.072403   -0.060457     0.8654    0.9269    2.0431    0.0000
   -0.4162     0.1495    -2.392    0.063792    0.011798    0.002671   -0.053837   -0.021265     0.8576    0.9357    0.4576    0.0000
   -0.4139     0.1533    -2.264    0.091478    0.011648    0.003625   -0.051071   -0.016046     0.8496    0.9448    0.3828    0.0000
   -0.4107     0.1564    -2.112    0.117054    0.011471    0.004325   -0.049828   -0.014689     0.8423    0.9506    0.3622    0.0000
   -0.4069     0.1586    -1.950    0.141675    0.011333    0.004832   -0.052641   -0.015860     0.8358    0.9559    0.3597    0.0001
   -0.4026     0.1597    -1.798    0.167818    0.011256    0.005277   -0.060845   -0.020065     0.8305    0.9616    0.3720    0.0003
   -0.3833     0.1600    -1.709    0.208436    0.011187    0.006227   -0.065702   -0.016098     0.8231    0.9704    0.3285    0.0016
   -0.3500     0.1600    -1.513    0.257828    0.011101    0.006820   -0.081104   -0.018621     0.8140    0.9809    0.3219    0.0112
   -0.3167     0.1600    -1.359    0.290822    0.010986    0.006909   -0.092062   -0.020744     0.8071    0.9872    0.3201    0.0301
   -0.2833     0.1600    -1.239    0.314200    0.010886    0.006805   -0.099792   -0.022175     0.8020    0.9915    0.3188    0.0594
   -0.2500     0.1600    -1.145    0.331398    0.010812    0.006633   -0.105391   -0.023133     0.7982    0.9946    0.3177    0.0998
   -0.2167     0.1600    -1.072    0.344321    0.010758    0.006448   -0.109534   -0.023787     0.7953    0.9969    0.3167    0.1521
   -0.1833     0.1600    -1.014    0.354115    0.010717    0.006275   -0.112632   -0.024242     0.7931    0.9986    0.3159    0.2167
   -0.1500     0.1600    -0.970    0.361510    0.010697    0.006126   -0.114946   -0.024561     0.7900    0.9990    0.3153    0.2939
   -0.1167     0.1600    -0.936    0.366985    0.010683    0.006004   -0.116646   -0.024784     0.7874    0.9992    0.3148    0.3841
   -0.0833     0.1600    -0.913    0.370858    0.010673    0.005912   -0.117841   -0.024934     0.7856    0.9993    0.3144    0.4873
   -0.0500     0.1600    -0.897    0.373337    0.010667    0.005851   -0.118602   -0.025027     0.7845    0.9993    0.3142    0.6037
   -0.0167     0.1600    -0.890    0.374546    0.010664    0.005820   -0.118973   -0.025072     0.7839    0.9994    0.3141    0.7335
    0.0167     0.1600    -0.890    0.374546    0.010664    0.005820   -0.118973   -0.025072     0.7839    0.9994    0.3141    0.7335
    0.0500     0.1600    -0.897    0.373337    0.010667    0.005851   -0.118602   -0.025027     0.7845    0.9993    0.3142    0.6037
    0.0833     0.1600    -0.913    0.370858    0.010673    0.005912   -0.117841   -0.024934     0.7856    0.9993    0.3144    0.4873
    0.1167     0.1600    -0.936    0.366985    0.010683    0.006004   -0.116646   -0.024784     0.7874    0.9992    0.3148    0.3841
    0.1500     0.1600    -0.970    0.361510    0.010697    0.006126   -0.114946   -0.024561     0.7900    0.9990    0.3153    0.2939
    0.1833     0.1600    -1.014    0.354115    0.010717    0.006275   -0.112632   -0.024242     0.7931    0.9986    0.3159    0.2167
    0.2167     0.1600    -1.072    0.344321    0.010758    0.006448   -0.109534   -0.023787     0.7953    0.9969    0.3167    0.1521
    0.2500     0.1600    -1.145    0.331398    0.010812    0.006633   -0.105391   -0.023133     0.7982    0.9946    0.3177    0.0998
    0.2833     0.1600    -1.239    0.314200    0.010886    0.006805   -0.099792   -0.022175     0.8020    0.9915    0.3188    0.0594
    0.3167     0.1600    -1.359    0.290822    0.010986    0.006909   -0.092062   -0.020744     0.8071    0.9872    0.3201    0.0301
    0.3500     0.1600    -1.513    0.257828    0.011101    0.006820   -0.081104   -0.018621     0.8140    0.9809    0.3219    0.0112
    0.3833     0.1600    -1.709    0.208436    0.011187    0.006227   -0.065702   -0.016098     0.8231    0.9704    0.3285    0.0016
    0.4026     0.1597    -1.798    0.167818    0.011256    0.005277   -0.060845   -0.020065     0.8305    0.9616    0.3720    0.0003
    0.4069     0.1586    -1.950    0.141675    0.011333    0.004832   -0.052641   -0.015860     0.8358    0.9559    0.3597    0.0001
    0.4107     0.1564    -2.112    0.117054    0.011471    0.004325   -0.049828   -0.014689     0.8423    0.9506    0.3622    0.0000
    0.4139     0.1533    -2.264    0.091478    0.011648    0.003625   -0.051071   -0.016046     0.8496    0.9448    0.3828    0.0000
    0.4162     0.1495    -2.392    0.063792    0.011798    0.002671   -0.053837   -0.021265     0.8576    0.9357    0.4576    0.0000
    0.4176     0.1453    -7.025    0.032926    0.011986    0.004084   -0.072403   -0.060457     0.8654    0.9269    2.0431    0.0000


Wing Cp Coefficients
 Panel     CtrlPt.x        CtrlPt.y        CtrlPt.z             Cp
Rounded tunnel shapeCp Coefficients
Strip 1
   8       1.572e-01      -4.166e-01      -9.943e-05         -0.8565
   9       1.466e-01      -4.166e-01      -7.589e-04         -0.2284
  10       1.269e-01      -4.166e-01      -2.188e-03         -0.0983
  11       1.013e-01      -4.166e-01      -3.746e-03         -0.1112
  12       7.346e-02      -4.166e-01      -4.652e-03         -0.2421
  13       4.777e-02      -4.166e-01      -4.575e-03         -0.5463
  14       2.812e-02      -4.166e-01      -3.424e-03         -0.8954
  15       1.748e-02      -4.166e-01      -1.398e-03         -0.7370
  16       1.748e-02      -4.166e-01       1.978e-03         -0.4123
  17       2.812e-02      -4.166e-01       6.188e-03         -0.3002
  18       4.777e-02      -4.166e-01       9.148e-03         -0.2245
  19       7.346e-02      -4.166e-01       9.755e-03         -0.4856
  20       1.013e-01      -4.166e-01       7.893e-03         -0.4673
  21       1.269e-01      -4.166e-01       4.621e-03         -0.3366
  22       1.466e-01      -4.166e-01       1.711e-03         -0.3655
  23       1.572e-01      -4.166e-01       2.818e-04         -0.9723
Strip 2
  24       1.572e-01      -4.155e-01      -1.023e-04         -0.3798
  25       1.462e-01      -4.155e-01      -7.810e-04         -0.1116
  26       1.260e-01      -4.155e-01      -2.252e-03         -0.0753
  27       9.955e-02      -4.155e-01      -3.855e-03         -0.0801
  28       7.094e-02      -4.155e-01      -4.787e-03         -0.0893
  29       4.451e-02      -4.155e-01      -4.708e-03         -0.1092
  30       2.428e-02      -4.155e-01      -3.523e-03         -0.1545
  31       1.334e-02      -4.155e-01      -1.439e-03         -0.2109
  32       1.334e-02      -4.155e-01       2.036e-03         -0.2381
  33       2.428e-02      -4.155e-01       6.368e-03         -0.2582
  34       4.451e-02      -4.155e-01       9.414e-03         -0.2528
  35       7.094e-02      -4.155e-01       1.004e-02         -0.2546
  36       9.955e-02      -4.155e-01       8.122e-03         -0.1847
  37       1.260e-01      -4.155e-01       4.755e-03         -0.1088
  38       1.462e-01      -4.155e-01       1.761e-03         -0.2001
  39       1.572e-01      -4.155e-01       2.900e-04         -0.5210
Strip 3
  40       1.571e-01      -4.133e-01      -1.049e-04         -0.0410
  41       1.459e-01      -4.133e-01      -8.008e-04         -0.0381
  42       1.251e-01      -4.133e-01      -2.309e-03         -0.0582
  43       9.802e-02      -4.133e-01      -3.953e-03         -0.0763
  44       6.868e-02      -4.133e-01      -4.908e-03         -0.0810
  45       4.158e-02      -4.133e-01      -4.828e-03         -0.0843
  46       2.084e-02      -4.133e-01      -3.613e-03         -0.0944
  47       9.617e-03      -4.133e-01      -1.475e-03          0.0456
  48       9.617e-03      -4.133e-01       2.087e-03         -0.0585
  49       2.084e-02      -4.133e-01       6.530e-03         -0.2829
  50       4.158e-02      -4.133e-01       9.652e-03         -0.2784
  51       6.868e-02      -4.133e-01       1.029e-02         -0.2454
  52       9.802e-02      -4.133e-01       8.328e-03         -0.1761
  53       1.251e-01      -4.133e-01       4.876e-03         -0.1050
  54       1.459e-01      -4.133e-01       1.806e-03         -0.0957
  55       1.571e-01      -4.133e-01       2.974e-04         -0.0976
Strip 4
  56       1.570e-01      -4.102e-01      -1.070e-04          0.0524
  57       1.456e-01      -4.102e-01      -8.169e-04          0.0147
  58       1.244e-01      -4.102e-01      -2.356e-03         -0.0389
  59       9.676e-02      -4.102e-01      -4.033e-03         -0.0707
  60       6.684e-02      -4.102e-01      -5.007e-03         -0.0800
  61       3.919e-02      -4.102e-01      -4.925e-03         -0.0873
  62       1.803e-02      -4.102e-01      -3.686e-03         -0.0767
  63       6.581e-03      -4.102e-01      -1.505e-03          0.1375
  64       6.581e-03      -4.102e-01       2.129e-03          0.0669
  65       1.803e-02      -4.102e-01       6.662e-03         -0.3113
  66       3.919e-02      -4.102e-01       9.847e-03         -0.3057
  67       6.684e-02      -4.102e-01       1.050e-02         -0.2556
  68       9.676e-02      -4.102e-01       8.496e-03         -0.1762
  69       1.244e-01      -4.102e-01       4.974e-03         -0.0882
  70       1.456e-01      -4.102e-01       1.842e-03         -0.0237
  71       1.570e-01      -4.102e-01       3.034e-04          0.0153
Strip 5
  72       1.570e-01      -4.064e-01      -1.085e-04          0.0884
  73       1.454e-01      -4.064e-01      -8.283e-04          0.0415
  74       1.239e-01      -4.064e-01      -2.389e-03         -0.0218
  75       9.588e-02      -4.064e-01      -4.089e-03         -0.0643
  76       6.554e-02      -4.064e-01      -5.077e-03         -0.0810
  77       3.751e-02      -4.064e-01      -4.994e-03         -0.0895
  78       1.605e-02      -4.064e-01      -3.737e-03         -0.0613
  79       4.438e-03      -4.064e-01      -1.526e-03          0.1784
  80       4.438e-03      -4.064e-01       2.159e-03          0.1388
  81       1.605e-02      -4.064e-01       6.755e-03         -0.3374
  82       3.751e-02      -4.064e-01       9.985e-03         -0.3319
  83       6.554e-02      -4.064e-01       1.065e-02         -0.2711
  84       9.588e-02      -4.064e-01       8.615e-03         -0.1802
  85       1.239e-01      -4.064e-01       5.043e-03         -0.0790
  86       1.454e-01      -4.064e-01       1.868e-03          0.0052
  87       1.570e-01      -4.064e-01       3.076e-04          0.0517
Strip 6
  88       1.570e-01      -4.022e-01      -1.093e-04          0.1131
  89       1.453e-01      -4.022e-01      -8.342e-04          0.0683
  90       1.237e-01      -4.022e-01      -2.406e-03          0.0014
  91       9.542e-02      -4.022e-01      -4.118e-03         -0.0557
  92       6.487e-02      -4.022e-01      -5.113e-03         -0.0808
  93       3.663e-02      -4.022e-01      -5.030e-03         -0.0889
  94       1.502e-02      -4.022e-01      -3.764e-03         -0.0511
  95       3.329e-03      -4.022e-01      -1.537e-03          0.2058
  96       3.329e-03      -4.022e-01       2.174e-03          0.1618
  97       1.502e-02      -4.022e-01       6.803e-03         -0.3626
  98       3.663e-02      -4.022e-01       1.006e-02         -0.3557
  99       6.487e-02      -4.022e-01       1.072e-02         -0.2870
 100       9.542e-02      -4.022e-01       8.677e-03         -0.1871
 101       1.237e-01      -4.022e-01       5.079e-03         -0.0790
 102       1.453e-01      -4.022e-01       1.881e-03          0.0153
 103       1.570e-01      -4.022e-01       3.098e-04          0.0661
Strip 7
 104       1.570e-01      -3.833e-01      -1.095e-04          0.1641
 105       1.452e-01      -3.833e-01      -8.358e-04          0.1059
 106       1.236e-01      -3.833e-01      -2.410e-03          0.0151
 107       9.531e-02      -3.833e-01      -4.126e-03         -0.0537
 108       6.469e-02      -3.833e-01      -5.123e-03         -0.0842
 109       3.641e-02      -3.833e-01      -5.039e-03         -0.0907
 110       1.476e-02      -3.833e-01      -3.771e-03         -0.0445
 111       3.045e-03      -3.833e-01      -1.540e-03          0.2500
 112       3.045e-03      -3.833e-01       2.178e-03          0.1072
 113       1.476e-02      -3.833e-01       6.815e-03         -0.4635
 114       3.641e-02      -3.833e-01       1.007e-02         -0.4393
 115       6.469e-02      -3.833e-01       1.074e-02         -0.3453
 116       9.531e-02      -3.833e-01       8.692e-03         -0.2097
 117       1.236e-01      -3.833e-01       5.089e-03         -0.0544
 118       1.452e-01      -3.833e-01       1.885e-03          0.0864
 119       1.570e-01      -3.833e-01       3.104e-04          0.1590
Strip 8
 120       1.570e-01      -3.500e-01      -1.095e-04          0.1754
 121       1.452e-01      -3.500e-01      -8.358e-04          0.1170
 122       1.236e-01      -3.500e-01      -2.410e-03          0.0244
 123       9.531e-02      -3.500e-01      -4.126e-03         -0.0492
 124       6.469e-02      -3.500e-01      -5.123e-03         -0.0813
 125       3.641e-02      -3.500e-01      -5.039e-03         -0.0806
 126       1.476e-02      -3.500e-01      -3.771e-03         -0.0126
 127       3.045e-03      -3.500e-01      -1.540e-03          0.3308
 128       3.045e-03      -3.500e-01       2.178e-03          0.0105
 129       1.476e-02      -3.500e-01       6.815e-03         -0.5333
 130       3.641e-02      -3.500e-01       1.007e-02         -0.5069
 131       6.469e-02      -3.500e-01       1.074e-02         -0.4016
 132       9.531e-02      -3.500e-01       8.692e-03         -0.2425
 133       1.236e-01      -3.500e-01       5.089e-03         -0.0625
 134       1.452e-01      -3.500e-01       1.885e-03          0.0929
 135       1.570e-01      -3.500e-01       3.104e-04          0.1713
Strip 9
 136       1.570e-01      -3.167e-01      -1.095e-04          0.1786
 137       1.452e-01      -3.167e-01      -8.358e-04          0.1212
 138       1.236e-01      -3.167e-01      -2.410e-03          0.0296
 139       9.531e-02      -3.167e-01      -4.126e-03         -0.0437
 140       6.469e-02      -3.167e-01      -5.123e-03         -0.0742
 141       3.641e-02      -3.167e-01      -5.039e-03         -0.0684
 142       1.476e-02      -3.167e-01      -3.771e-03          0.0112
 143       3.045e-03      -3.167e-01      -1.540e-03          0.3870
 144       3.045e-03      -3.167e-01       2.178e-03         -0.0655
 145       1.476e-02      -3.167e-01       6.815e-03         -0.5787
 146       3.641e-02      -3.167e-01       1.007e-02         -0.5433
 147       6.469e-02      -3.167e-01       1.074e-02         -0.4321
 148       9.531e-02      -3.167e-01       8.692e-03         -0.2632
 149       1.236e-01      -3.167e-01       5.089e-03         -0.0723
 150       1.452e-01      -3.167e-01       1.885e-03          0.0911
 151       1.570e-01      -3.167e-01       3.104e-04          0.1733
Strip 10
 152       1.570e-01      -2.833e-01      -1.095e-04          0.1798
 153       1.452e-01      -2.833e-01      -8.358e-04          0.1233
 154       1.236e-01      -2.833e-01      -2.410e-03          0.0331
 155       9.531e-02      -2.833e-01      -4.126e-03         -0.0389
 156       6.469e-02      -2.833e-01      -5.123e-03         -0.0676
 157       3.641e-02      -2.833e-01      -5.039e-03         -0.0582
 158       1.476e-02      -2.833e-01      -3.771e-03          0.0293
 159       3.045e-03      -2.833e-01      -1.540e-03          0.4281
 160       3.045e-03      -2.833e-01       2.178e-03         -0.1248
 161       1.476e-02      -2.833e-01       6.815e-03         -0.6111
 162       3.641e-02      -2.833e-01       1.007e-02         -0.5670
 163       6.469e-02      -2.833e-01       1.074e-02         -0.4512
 164       9.531e-02      -2.833e-01       8.692e-03         -0.2766
 165       1.236e-01      -2.833e-01       5.089e-03         -0.0797
 166       1.452e-01      -2.833e-01       1.885e-03          0.0885
 167       1.570e-01      -2.833e-01       3.104e-04          0.1731
Strip 11
 168       1.570e-01      -2.500e-01      -1.095e-04          0.1803
 169       1.452e-01      -2.500e-01      -8.358e-04          0.1246
 170       1.236e-01      -2.500e-01      -2.410e-03          0.0357
 171       9.531e-02      -2.500e-01      -4.126e-03         -0.0351
 172       6.469e-02      -2.500e-01      -5.123e-03         -0.0621
 173       3.641e-02      -2.500e-01      -5.039e-03         -0.0501
 174       1.476e-02      -2.500e-01      -3.771e-03          0.0433
 175       3.045e-03      -2.500e-01      -1.540e-03          0.4589
 176       3.045e-03      -2.500e-01       2.178e-03         -0.1714
 177       1.476e-02      -2.500e-01       6.815e-03         -0.6354
 178       3.641e-02      -2.500e-01       1.007e-02         -0.5836
 179       6.469e-02      -2.500e-01       1.074e-02         -0.4641
 180       9.531e-02      -2.500e-01       8.692e-03         -0.2858
 181       1.236e-01      -2.500e-01       5.089e-03         -0.0849
 182       1.452e-01      -2.500e-01       1.885e-03          0.0863
 183       1.570e-01      -2.500e-01       3.104e-04          0.1725
Strip 12
 184       1.570e-01      -2.167e-01      -1.095e-04          0.1805
 185       1.452e-01      -2.167e-01      -8.358e-04          0.1254
 186       1.236e-01      -2.167e-01      -2.410e-03          0.0376
 187       9.531e-02      -2.167e-01      -4.126e-03         -0.0320
 188       6.469e-02      -2.167e-01      -5.123e-03         -0.0577
 189       3.641e-02      -2.167e-01      -5.039e-03         -0.0436
 190       1.476e-02      -2.167e-01      -3.771e-03          0.0542
 191       3.045e-03      -2.167e-01      -1.540e-03          0.4823
 192       3.045e-03      -2.167e-01       2.178e-03         -0.2082
 193       1.476e-02      -2.167e-01       6.815e-03         -0.6538
 194       3.641e-02      -2.167e-01       1.007e-02         -0.5958
 195       6.469e-02      -2.167e-01       1.074e-02         -0.4733
 196       9.531e-02      -2.167e-01       8.692e-03         -0.2922
 197       1.236e-01      -2.167e-01       5.089e-03         -0.0887
 198       1.452e-01      -2.167e-01       1.885e-03          0.0845
 199       1.570e-01      -2.167e-01       3.104e-04          0.1718
Strip 13
 200       1.570e-01      -1.833e-01      -1.095e-04          0.1807
 201       1.452e-01      -1.833e-01      -8.358e-04          0.1261
 202       1.236e-01      -1.833e-01      -2.410e-03          0.0390
 203       9.531e-02      -1.833e-01      -4.126e-03         -0.0297
 204       6.469e-02      -1.833e-01      -5.123e-03         -0.0543
 205       3.641e-02      -1.833e-01      -5.039e-03         -0.0386
 206       1.476e-02      -1.833e-01      -3.771e-03          0.0627
 207       3.045e-03      -1.833e-01      -1.540e-03          0.5001
 208       3.045e-03      -1.833e-01       2.178e-03         -0.2371
 209       1.476e-02      -1.833e-01       6.815e-03         -0.6679
 210       3.641e-02      -1.833e-01       1.007e-02         -0.6048
 211       6.469e-02      -1.833e-01       1.074e-02         -0.4799
 212       9.531e-02      -1.833e-01       8.692e-03         -0.2968
 213       1.236e-01      -1.833e-01       5.089e-03         -0.0915
 214       1.452e-01      -1.833e-01       1.885e-03          0.0832
 215       1.570e-01      -1.833e-01       3.104e-04          0.1713
Strip 14
 216       1.570e-01      -1.500e-01      -1.095e-04          0.1808
 217       1.452e-01      -1.500e-01      -8.358e-04          0.1265
 218       1.236e-01      -1.500e-01      -2.410e-03          0.0401
 219       9.531e-02      -1.500e-01      -4.126e-03         -0.0279
 220       6.469e-02      -1.500e-01      -5.123e-03         -0.0517
 221       3.641e-02      -1.500e-01      -5.039e-03         -0.0347
 222       1.476e-02      -1.500e-01      -3.771e-03          0.0692
 223       3.045e-03      -1.500e-01      -1.540e-03          0.5136
 224       3.045e-03      -1.500e-01       2.178e-03         -0.2596
 225       1.476e-02      -1.500e-01       6.815e-03         -0.6786
 226       3.641e-02      -1.500e-01       1.007e-02         -0.6115
 227       6.469e-02      -1.500e-01       1.074e-02         -0.4848
 228       9.531e-02      -1.500e-01       8.692e-03         -0.3002
 229       1.236e-01      -1.500e-01       5.089e-03         -0.0935
 230       1.452e-01      -1.500e-01       1.885e-03          0.0823
 231       1.570e-01      -1.500e-01       3.104e-04          0.1709
Strip 15
 232       1.570e-01      -1.167e-01      -1.095e-04          0.1809
 233       1.452e-01      -1.167e-01      -8.358e-04          0.1269
 234       1.236e-01      -1.167e-01      -2.410e-03          0.0409
 235       9.531e-02      -1.167e-01      -4.126e-03         -0.0265
 236       6.469e-02      -1.167e-01      -5.123e-03         -0.0497
 237       3.641e-02      -1.167e-01      -5.039e-03         -0.0318
 238       1.476e-02      -1.167e-01      -3.771e-03          0.0741
 239       3.045e-03      -1.167e-01      -1.540e-03          0.5237
 240       3.045e-03      -1.167e-01       2.178e-03         -0.2766
 241       1.476e-02      -1.167e-01       6.815e-03         -0.6866
 242       3.641e-02      -1.167e-01       1.007e-02         -0.6165
 243       6.469e-02      -1.167e-01       1.074e-02         -0.4883
 244       9.531e-02      -1.167e-01       8.692e-03         -0.3026
 245       1.236e-01      -1.167e-01       5.089e-03         -0.0950
 246       1.452e-01      -1.167e-01       1.885e-03          0.0815
 247       1.570e-01      -1.167e-01       3.104e-04          0.1706
Strip 16
 248       1.570e-01      -8.333e-02      -1.095e-04          0.1809
 249       1.452e-01      -8.333e-02      -8.358e-04          0.1271
 250       1.236e-01      -8.333e-02      -2.410e-03          0.0415
 251       9.531e-02      -8.333e-02      -4.126e-03         -0.0255
 252       6.469e-02      -8.333e-02      -5.123e-03         -0.0483
 253       3.641e-02      -8.333e-02      -5.039e-03         -0.0298
 254       1.476e-02      -8.333e-02      -3.771e-03          0.0776
 255       3.045e-03      -8.333e-02      -1.540e-03          0.5308
 256       3.045e-03      -8.333e-02       2.178e-03         -0.2888
 257       1.476e-02      -8.333e-02       6.815e-03         -0.6923
 258       3.641e-02      -8.333e-02       1.007e-02         -0.6200
 259       6.469e-02      -8.333e-02       1.074e-02         -0.4908
 260       9.531e-02      -8.333e-02       8.692e-03         -0.3043
 261       1.236e-01      -8.333e-02       5.089e-03         -0.0960
 262       1.452e-01      -8.333e-02       1.885e-03          0.0810
 263       1.570e-01      -8.333e-02       3.104e-04          0.1704
Strip 17
 264       1.570e-01      -5.000e-02      -1.095e-04          0.1809
 265       1.452e-01      -5.000e-02      -8.358e-04          0.1273
 266       1.236e-01      -5.000e-02      -2.410e-03          0.0419
 267       9.531e-02      -5.000e-02      -4.126e-03         -0.0249
 268       6.469e-02      -5.000e-02      -5.123e-03         -0.0473
 269       3.641e-02      -5.000e-02      -5.039e-03         -0.0284
 270       1.476e-02      -5.000e-02      -3.771e-03          0.0798
 271       3.045e-03      -5.000e-02      -1.540e-03          0.5353
 272       3.045e-03      -5.000e-02       2.178e-03         -0.2967
 273       1.476e-02      -5.000e-02       6.815e-03         -0.6960
 274       3.641e-02      -5.000e-02       1.007e-02         -0.6222
 275       6.469e-02      -5.000e-02       1.074e-02         -0.4924
 276       9.531e-02      -5.000e-02       8.692e-03         -0.3054
 277       1.236e-01      -5.000e-02       5.089e-03         -0.0967
 278       1.452e-01      -5.000e-02       1.885e-03          0.0807
 279       1.570e-01      -5.000e-02       3.104e-04          0.1702
Strip 18
 280       1.570e-01      -1.667e-02      -1.095e-04          0.1810
 281       1.452e-01      -1.667e-02      -8.358e-04          0.1274
 282       1.236e-01      -1.667e-02      -2.410e-03          0.0421
 283       9.531e-02      -1.667e-02      -4.126e-03         -0.0246
 284       6.469e-02      -1.667e-02      -5.123e-03         -0.0469
 285       3.641e-02      -1.667e-02      -5.039e-03         -0.0278
 286       1.476e-02      -1.667e-02      -3.771e-03          0.0809
 287       3.045e-03      -1.667e-02      -1.540e-03          0.5375
 288       3.045e-03      -1.667e-02       2.178e-03         -0.3006
 289       1.476e-02      -1.667e-02       6.815e-03         -0.6978
 290       3.641e-02      -1.667e-02       1.007e-02         -0.6233
 291       6.469e-02      -1.667e-02       1.074e-02         -0.4931
 292       9.531e-02      -1.667e-02       8.692e-03         -0.3059
 293       1.236e-01      -1.667e-02       5.089e-03         -0.0970
 294       1.452e-01      -1.667e-02       1.885e-03          0.0806
 295       1.570e-01      -1.667e-02       3.104e-04          0.1701
Strip 19
 296       1.570e-01       1.667e-02      -1.095e-04          0.1810
 297       1.452e-01       1.667e-02      -8.358e-04          0.1274
 298       1.236e-01       1.667e-02      -2.410e-03          0.0421
 299       9.531e-02       1.667e-02      -4.126e-03         -0.0246
 300       6.469e-02       1.667e-02      -5.123e-03         -0.0469
 301       3.641e-02       1.667e-02      -5.039e-03         -0.0278
 302       1.476e-02       1.667e-02      -3.771e-03          0.0809
 303       3.045e-03       1.667e-02      -1.540e-03          0.5375
 304       3.045e-03       1.667e-02       2.178e-03         -0.3006
 305       1.476e-02       1.667e-02       6.815e-03         -0.6978
 306       3.641e-02       1.667e-02       1.007e-02         -0.6233
 307       6.469e-02       1.667e-02       1.074e-02         -0.4931
 308       9.531e-02       1.667e-02       8.692e-03         -0.3059
 309       1.236e-01       1.667e-02       5.089e-03         -0.0970
 310       1.452e-01       1.667e-02       1.885e-03          0.0806
 311       1.570e-01       1.667e-02       3.104e-04          0.1701
Strip 20
 312       1.570e-01       5.000e-02      -1.095e-04          0.1809
 313       1.452e-01       5.000e-02      -8.358e-04          0.1273
 314       1.236e-01       5.000e-02      -2.410e-03          0.0419
 315       9.531e-02       5.000e-02      -4.126e-03         -0.0249
 316       6.469e-02       5.000e-02      -5.123e-03         -0.0473
 317       3.641e-02       5.000e-02      -5.039e-03         -0.0284
 318       1.476e-02       5.000e-02      -3.771e-03          0.0798
 319       3.045e-03       5.000e-02      -1.540e-03          0.5353
 320       3.045e-03       5.000e-02       2.178e-03         -0.2967
 321       1.476e-02       5.000e-02       6.815e-03         -0.6960
 322       3.641e-02       5.000e-02       1.007e-02         -0.6222
 323       6.469e-02       5.000e-02       1.074e-02         -0.4924
 324       9.531e-02       5.000e-02       8.692e-03         -0.3054
 325       1.236e-01       5.000e-02       5.089e-03         -0.0967
 326       1.452e-01       5.000e-02       1.885e-03          0.0807
 327       1.570e-01       5.000e-02       3.104e-04          0.1702
Strip 21
 328       1.570e-01       8.333e-02      -1.095e-04          0.1809
 329       1.452e-01       8.333e-02      -8.358e-04          0.1271
 330       1.236e-01       8.333e-02      -2.410e-03          0.0415
 331       9.531e-02       8.333e-02      -4.126e-03         -0.0255
 332       6.469e-02       8.333e-02      -5.123e-03         -0.0483
 333       3.641e-02       8.333e-02      -5.039e-03         -0.0298
 334       1.476e-02       8.333e-02      -3.771e-03          0.0776
 335       3.045e-03       8.333e-02      -1.540e-03          0.5308
 336       3.045e-03       8.333e-02       2.178e-03         -0.2888
 337       1.476e-02       8.333e-02       6.815e-03         -0.6923
 338       3.641e-02       8.333e-02       1.007e-02         -0.6200
 339       6.469e-02       8.333e-02       1.074e-02         -0.4908
 340       9.531e-02       8.333e-02       8.692e-03         -0.3043
 341       1.236e-01       8.333e-02       5.089e-03         -0.0960
 342       1.452e-01       8.333e-02       1.885e-03          0.0810
 343       1.570e-01       8.333e-02       3.104e-04          0.1704
Strip 22
 344       1.570e-01       1.167e-01      -1.095e-04          0.1809
 345       1.452e-01       1.167e-01      -8.358e-04          0.1269
 346       1.236e-01       1.167e-01      -2.410e-03          0.0409
 347       9.531e-02       1.167e-01      -4.126e-03         -0.0265
 348       6.469e-02       1.167e-01      -5.123e-03         -0.0497
 349       3.641e-02       1.167e-01      -5.039e-03         -0.0318
 350       1.476e-02       1.167e-01      -3.771e-03          0.0741
 351       3.045e-03       1.167e-01      -1.540e-03          0.5237
 352       3.045e-03       1.167e-01       2.178e-03         -0.2766
 353       1.476e-02       1.167e-01       6.815e-03         -0.6866
 354       3.641e-02       1.167e-01       1.007e-02         -0.6165
 355       6.469e-02       1.167e-01       1.074e-02         -0.4883
 356       9.531e-02       1.167e-01       8.692e-03         -0.3026
 357       1.236e-01       1.167e-01       5.089e-03         -0.0950
 358       1.452e-01       1.167e-01       1.885e-03          0.0815
 359       1.570e-01       1.167e-01       3.104e-04          0.1706
Strip 23
 360       1.570e-01       1.500e-01      -1.095e-04          0.1808
 361       1.452e-01       1.500e-01      -8.358e-04          0.1265
 362       1.236e-01       1.500e-01      -2.410e-03          0.0401
 363       9.531e-02       1.500e-01      -4.126e-03         -0.0279
 364       6.469e-02       1.500e-01      -5.123e-03         -0.0517
 365       3.641e-02       1.500e-01      -5.039e-03         -0.0347
 366       1.476e-02       1.500e-01      -3.771e-03          0.0692
 367       3.045e-03       1.500e-01      -1.540e-03          0.5136
 368       3.045e-03       1.500e-01       2.178e-03         -0.2596
 369       1.476e-02       1.500e-01       6.815e-03         -0.6786
 370       3.641e-02       1.500e-01       1.007e-02         -0.6115
 371       6.469e-02       1.500e-01       1.074e-02         -0.4848
 372       9.531e-02       1.500e-01       8.692e-03         -0.3002
 373       1.236e-01       1.500e-01       5.089e-03         -0.0935
 374       1.452e-01       1.500e-01       1.885e-03          0.0823
 375       1.570e-01       1.500e-01       3.104e-04          0.1709
Strip 24
 376       1.570e-01       1.833e-01      -1.095e-04          0.1807
 377       1.452e-01       1.833e-01      -8.358e-04          0.1261
 378       1.236e-01       1.833e-01      -2.410e-03          0.0390
 379       9.531e-02       1.833e-01      -4.126e-03         -0.0297
 380       6.469e-02       1.833e-01      -5.123e-03         -0.0543
 381       3.641e-02       1.833e-01      -5.039e-03         -0.0386
 382       1.476e-02       1.833e-01      -3.771e-03          0.0627
 383       3.045e-03       1.833e-01      -1.540e-03          0.5001
 384       3.045e-03       1.833e-01       2.178e-03         -0.2371
 385       1.476e-02       1.833e-01       6.815e-03         -0.6679
 386       3.641e-02       1.833e-01       1.007e-02         -0.6048
 387       6.469e-02       1.833e-01       1.074e-02         -0.4799
 388       9.531e-02       1.833e-01       8.692e-03         -0.2968
 389       1.236e-01       1.833e-01       5.089e-03         -0.0915
 390       1.452e-01       1.833e-01       1.885e-03          0.0832
 391       1.570e-01       1.833e-01       3.104e-04          0.1713
Strip 25
 392       1.570e-01       2.167e-01      -1.095e-04          0.1805
 393       1.452e-01       2.167e-01      -8.358e-04          0.1254
 394       1.236e-01       2.167e-01      -2.410e-03          0.0376
 395       9.531e-02       2.167e-01      -4.126e-03         -0.0320
 396       6.469e-02       2.167e-01      -5.123e-03         -0.0577
 397       3.641e-02       2.167e-01      -5.039e-03         -0.0436
 398       1.476e-02       2.167e-01      -3.771e-03          0.0542
 399       3.045e-03       2.167e-01      -1.540e-03          0.4823
 400       3.045e-03       2.167e-01       2.178e-03         -0.2082
 401       1.476e-02       2.167e-01       6.815e-03         -0.6538
 402       3.641e-02       2.167e-01       1.007e-02         -0.5958
 403       6.469e-02       2.167e-01       1.074e-02         -0.4733
 404       9.531e-02       2.167e-01       8.692e-03         -0.2922
 405       1.236e-01       2.167e-01       5.089e-03         -0.0887
 406       1.452e-01       2.167e-01       1.885e-03          0.0845
 407       1.570e-01       2.167e-01       3.104e-04          0.1718
Strip 26
 408       1.570e-01       2.500e-01      -1.095e-04          0.1803
 409       1.452e-01       2.500e-01      -8.358e-04          0.1246
 410       1.236e-01       2.500e-01      -2.410e-03          0.0357
 411       9.531e-02       2.500e-01      -4.126e-03         -0.0351
 412       6.469e-02       2.500e-01      -5.123e-03         -0.0621
 413       3.641e-02       2.500e-01      -5.039e-03         -0.0501
 414       1.476e-02       2.500e-01      -3.771e-03          0.0433
 415       3.045e-03       2.500e-01      -1.540e-03          0.4589
 416       3.045e-03       2.500e-01       2.178e-03         -0.1714
 417       1.476e-02       2.500e-01       6.815e-03         -0.6354
 418       3.641e-02       2.500e-01       1.007e-02         -0.5836
 419       6.469e-02       2.500e-01       1.074e-02         -0.4641
 420       9.531e-02       2.500e-01       8.692e-03         -0.2858
 421       1.236e-01       2.500e-01       5.089e-03         -0.0849
 422       1.452e-01       2.500e-01       1.885e-03          0.0863
 423       1.570e-01       2.500e-01       3.104e-04          0.1725
Strip 27
 424       1.570e-01       2.833e-01      -1.095e-04          0.1798
 425       1.452e-01       2.833e-01      -8.358e-04          0.1233
 426       1.236e-01       2.833e-01      -2.410e-03          0.0331
 427       9.531e-02       2.833e-01      -4.126e-03         -0.0389
 428       6.469e-02       2.833e-01      -5.123e-03         -0.0676
 429       3.641e-02       2.833e-01      -5.039e-03         -0.0582
 430       1.476e-02       2.833e-01      -3.771e-03          0.0293
 431       3.045e-03       2.833e-01      -1.540e-03          0.4281
 432       3.045e-03       2.833e-01       2.178e-03         -0.1248
 433       1.476e-02       2.833e-01       6.815e-03         -0.6111
 434       3.641e-02       2.833e-01       1.007e-02         -0.5670
 435       6.469e-02       2.833e-01       1.074e-02         -0.4512
 436       9.531e-02       2.833e-01       8.692e-03         -0.2766
 437       1.236e-01       2.833e-01       5.089e-03         -0.0797
 438       1.452e-01       2.833e-01       1.885e-03          0.0885
 439       1.570e-01       2.833e-01       3.104e-04          0.1731
Strip 28
 440       1.570e-01       3.167e-01      -1.095e-04          0.1786
 441       1.452e-01       3.167e-01      -8.358e-04          0.1212
 442       1.236e-01       3.167e-01      -2.410e-03          0.0296
 443       9.531e-02       3.167e-01      -4.126e-03         -0.0437
 444       6.469e-02       3.167e-01      -5.123e-03         -0.0742
 445       3.641e-02       3.167e-01      -5.039e-03         -0.0684
 446       1.476e-02       3.167e-01      -3.771e-03          0.0112
 447       3.045e-03       3.167e-01      -1.540e-03          0.3870
 448       3.045e-03       3.167e-01       2.178e-03         -0.0655
 449       1.476e-02       3.167e-01       6.815e-03         -0.5787
 450       3.641e-02       3.167e-01       1.007e-02         -0.5433
 451       6.469e-02       3.167e-01       1.074e-02         -0.4321
 452       9.531e-02       3.167e-01       8.692e-03         -0.2632
 453       1.236e-01       3.167e-01       5.089e-03         -0.0723
 454       1.452e-01       3.167e-01       1.885e-03          0.0911
 455       1.570e-01       3.167e-01       3.104e-04          0.1733
Strip 29
 456       1.570e-01       3.500e-01      -1.095e-04          0.1754
 457       1.452e-01       3.500e-01      -8.358e-04          0.1170
 458       1.236e-01       3.500e-01      -2.410e-03          0.0244
 459       9.531e-02       3.500e-01      -4.126e-03         -0.0492
 460       6.469e-02       3.500e-01      -5.123e-03         -0.0813
 461       3.641e-02       3.500e-01      -5.039e-03         -0.0806
 462       1.476e-02       3.500e-01      -3.771e-03         -0.0126
 463       3.045e-03       3.500e-01      -1.540e-03          0.3308
 464       3.045e-03       3.500e-01       2.178e-03          0.0105
 465       1.476e-02       3.500e-01       6.815e-03         -0.5333
 466       3.641e-02       3.500e-01       1.007e-02         -0.5069
 467       6.469e-02       3.500e-01       1.074e-02         -0.4016
 468       9.531e-02       3.500e-01       8.692e-03         -0.2425
 469       1.236e-01       3.500e-01       5.089e-03         -0.0625
 470       1.452e-01       3.500e-01       1.885e-03          0.0929
 471       1.570e-01       3.500e-01       3.104e-04          0.1713
Strip 30
 472       1.570e-01       3.833e-01      -1.095e-04          0.1641
 473       1.452e-01       3.833e-01      -8.358e-04          0.1059
 474       1.236e-01       3.833e-01      -2.410e-03          0.0151
 475       9.531e-02       3.833e-01      -4.126e-03         -0.0537
 476       6.469e-02       3.833e-01      -5.123e-03         -0.0842
 477       3.641e-02       3.833e-01      -5.039e-03         -0.0907
 478       1.476e-02       3.833e-01      -3.771e-03         -0.0445
 479       3.045e-03       3.833e-01      -1.540e-03          0.2500
 480       3.045e-03       3.833e-01       2.178e-03          0.1072
 481       1.476e-02       3.833e-01       6.815e-03         -0.4635
 482       3.641e-02       3.833e-01       1.007e-02         -0.4393
 483       6.469e-02       3.833e-01       1.074e-02         -0.3453
 484       9.531e-02       3.833e-01       8.692e-03         -0.2097
 485       1.236e-01       3.833e-01       5.089e-03         -0.0544
 486       1.452e-01       3.833e-01       1.885e-03          0.0864
 487       1.570e-01       3.833e-01       3.104e-04          0.1590
Strip 31
 488       1.570e-01       4.022e-01      -1.093e-04          0.1131
 489       1.453e-01       4.022e-01      -8.342e-04          0.0683
 490       1.237e-01       4.022e-01      -2.406e-03          0.0014
 491       9.542e-02       4.022e-01      -4.118e-03         -0.0557
 492       6.487e-02       4.022e-01      -5.113e-03         -0.0808
 493       3.663e-02       4.022e-01      -5.030e-03         -0.0889
 494       1.502e-02       4.022e-01      -3.764e-03         -0.0511
 495       3.329e-03       4.022e-01      -1.537e-03          0.2058
 496       3.329e-03       4.022e-01       2.174e-03          0.1618
 497       1.502e-02       4.022e-01       6.803e-03         -0.3626
 498       3.663e-02       4.022e-01       1.006e-02         -0.3557
 499       6.487e-02       4.022e-01       1.072e-02         -0.2870
 500       9.542e-02       4.022e-01       8.677e-03         -0.1871
 501       1.237e-01       4.022e-01       5.079e-03         -0.0790
 502       1.453e-01       4.022e-01       1.881e-03          0.0153
 503       1.570e-01       4.022e-01       3.098e-04          0.0661
Strip 32
 504       1.570e-01       4.064e-01      -1.085e-04          0.0884
 505       1.454e-01       4.064e-01      -8.283e-04          0.0415
 506       1.239e-01       4.064e-01      -2.389e-03         -0.0218
 507       9.588e-02       4.064e-01      -4.089e-03         -0.0643
 508       6.554e-02       4.064e-01      -5.077e-03         -0.0810
 509       3.751e-02       4.064e-01      -4.994e-03         -0.0895
 510       1.605e-02       4.064e-01      -3.737e-03         -0.0613
 511       4.438e-03       4.064e-01      -1.526e-03          0.1784
 512       4.438e-03       4.064e-01       2.159e-03          0.1388
 513       1.605e-02       4.064e-01       6.755e-03         -0.3374
 514       3.751e-02       4.064e-01       9.985e-03         -0.3319
 515       6.554e-02       4.064e-01       1.065e-02         -0.2711
 516       9.588e-02       4.064e-01       8.615e-03         -0.1802
 517       1.239e-01       4.064e-01       5.043e-03         -0.0790
 518       1.454e-01       4.064e-01       1.868e-03          0.0052
 519       1.570e-01       4.064e-01       3.076e-04          0.0517
Strip 33
 520       1.570e-01       4.102e-01      -1.070e-04          0.0524
 521       1.456e-01       4.102e-01      -8.169e-04          0.0147
 522       1.244e-01       4.102e-01      -2.356e-03         -0.0389
 523       9.676e-02       4.102e-01      -4.033e-03         -0.0707
 524       6.684e-02       4.102e-01      -5.007e-03         -0.0800
 525       3.919e-02       4.102e-01      -4.925e-03         -0.0873
 526       1.803e-02       4.102e-01      -3.686e-03         -0.0767
 527       6.581e-03       4.102e-01      -1.505e-03          0.1375
 528       6.581e-03       4.102e-01       2.129e-03          0.0669
 529       1.803e-02       4.102e-01       6.662e-03         -0.3113
 530       3.919e-02       4.102e-01       9.847e-03         -0.3057
 531       6.684e-02       4.102e-01       1.050e-02         -0.2556
 532       9.676e-02       4.102e-01       8.496e-03         -0.1762
 533       1.244e-01       4.102e-01       4.974e-03         -0.0882
 534       1.456e-01       4.102e-01       1.842e-03         -0.0237
 535       1.570e-01       4.102e-01       3.034e-04          0.0153
Strip 34
 536       1.571e-01       4.133e-01      -1.049e-04         -0.0410
 537       1.459e-01       4.133e-01      -8.008e-04         -0.0381
 538       1.251e-01       4.133e-01      -2.309e-03         -0.0582
 539       9.802e-02       4.133e-01      -3.953e-03         -0.0763
 540       6.868e-02       4.133e-01      -4.908e-03         -0.0810
 541       4.158e-02       4.133e-01      -4.828e-03         -0.0843
 542       2.084e-02       4.133e-01      -3.613e-03         -0.0944
 543       9.617e-03       4.133e-01      -1.475e-03          0.0456
 544       9.617e-03       4.133e-01       2.087e-03         -0.0585
 545       2.084e-02       4.133e-01       6.530e-03         -0.2829
 546       4.158e-02       4.133e-01       9.652e-03         -0.2784
 547       6.868e-02       4.133e-01       1.029e-02         -0.2454
 548       9.802e-02       4.133e-01       8.328e-03         -0.1761
 549       1.251e-01       4.133e-01       4.876e-03         -0.1050
 550       1.459e-01       4.133e-01       1.806e-03         -0.0957
 551       1.571e-01       4.133e-01       2.974e-04         -0.0976
Strip 35
 552       1.572e-01       4.155e-01      -1.023e-04         -0.3798
 553       1.462e-01       4.155e-01      -7.810e-04         -0.1116
 554       1.260e-01       4.155e-01      -2.252e-03         -0.0753
 555       9.955e-02       4.155e-01      -3.855e-03         -0.0801
 556       7.094e-02       4.155e-01      -4.787e-03         -0.0893
 557       4.451e-02       4.155e-01      -4.708e-03         -0.1092
 558       2.428e-02       4.155e-01      -3.523e-03         -0.1545
 559       1.334e-02       4.155e-01      -1.439e-03         -0.2109
 560       1.334e-02       4.155e-01       2.036e-03         -0.2381
 561       2.428e-02       4.155e-01       6.368e-03         -0.2582
 562       4.451e-02       4.155e-01       9.414e-03         -0.2528
 563       7.094e-02       4.155e-01       1.004e-02         -0.2546
 564       9.955e-02       4.155e-01       8.122e-03         -0.1847
 565       1.260e-01       4.155e-01       4.755e-03         -0.1088
 566       1.462e-01       4.155e-01       1.761e-03         -0.2001
 567       1.572e-01       4.155e-01       2.900e-04         -0.5210
Strip 36
 568       1.572e-01       4.166e-01      -9.943e-05         -0.8565
 569       1.466e-01       4.166e-01      -7.589e-04         -0.2284
 570       1.269e-01       4.166e-01      -2.188e-03         -0.0983
 571       1.013e-01       4.166e-01      -3.746e-03         -0.1112
 572       7.346e-02       4.166e-01      -4.652e-03         -0.2421
 573       4.777e-02       4.166e-01      -4.575e-03         -0.5463
 574       2.812e-02       4.166e-01      -3.424e-03         -0.8954
 575       1.748e-02       4.166e-01      -1.398e-03         -0.7370
 576       1.748e-02       4.166e-01       1.978e-03         -0.4123
 577       2.812e-02       4.166e-01       6.188e-03         -0.3002
 578       4.777e-02       4.166e-01       9.148e-03         -0.2245
 579       7.346e-02       4.166e-01       9.755e-03         -0.4856
 580       1.013e-01       4.166e-01       7.893e-03         -0.4673
 581       1.269e-01       4.166e-01       4.621e-03         -0.3366
 582       1.466e-01       4.166e-01       1.711e-03         -0.3655
 583       1.572e-01       4.166e-01       2.818e-04         -0.9723










