XFLR5 v6.02 Beta

Rounded tunnel shape
T1-18.0 m/s-VLM1-x0.000mm
QInf  =   18.000000 m/s
Alpha =    3.000000
Beta  =    0.000°
Phi   =    0.000°
Ctrl  =    0.000
CL    =    0.314464
Cy    =    0.000000
Cd    =    0.016816     ICd   =    0.005933     PCd   =    0.010883
Cl   = -7.74093e-19
Cm   =   -0.110882
ICn   =    0.000000     PCn   =   -0.000000 
XCP   =    0.056328     YCP   =    0.000000 
XNP   =    0.000000
Bend. =    0.711964

Rounded tunnel shape
  y-span        Chord      Ai         Cl        PCd          ICd        CmGeom      CmAirf      XTrtop    XTrBot      XCP       BM
   -0.4176     0.1453    -3.702    0.050984    0.012009    0.005555   -0.030586   -0.009419     0.8633    0.9326    0.4057    0.0000
   -0.4162     0.1495    -3.661    0.084234    0.011840    0.004334   -0.037278   -0.012841     0.8548    0.9430    0.4176    0.0000
   -0.4139     0.1533    -3.597    0.100068    0.011644    0.004628   -0.043138   -0.014472     0.8484    0.9469    0.3975    0.0000
   -0.4107     0.1564    -3.558    0.120117    0.011469    0.004771   -0.048863   -0.016323     0.8418    0.9513    0.3862    0.0001
   -0.4069     0.1586    -3.536    0.141171    0.011333    0.004936   -0.054631   -0.018185     0.8359    0.9558    0.3784    0.0002
   -0.4026     0.1597    -3.506    0.163756    0.011260    0.004367   -0.060875   -0.019697     0.8311    0.9607    0.3697    0.0003
   -0.3833     0.1600    -3.279    0.204450    0.011193    0.005918   -0.075225   -0.024027     0.8238    0.9695    0.3665    0.0016
   -0.3500     0.1600    -2.916    0.252537    0.011112    0.006474   -0.091382   -0.028168     0.8150    0.9797    0.3606    0.0111
   -0.3167     0.1600    -2.624    0.284639    0.011013    0.006551   -0.101849   -0.030620     0.8085    0.9861    0.3567    0.0295
   -0.2833     0.1600    -2.393    0.307369    0.010915    0.006446   -0.109068   -0.032169     0.8035    0.9902    0.3538    0.0580
   -0.2500     0.1600    -2.212    0.324075    0.010843    0.006277   -0.114261   -0.033196     0.7998    0.9933    0.3516    0.0973
   -0.2167     0.1600    -2.069    0.336617    0.010790    0.006097   -0.118093   -0.033903     0.7970    0.9955    0.3499    0.1481
   -0.1833     0.1600    -1.958    0.346113    0.010751    0.005929   -0.120957   -0.034401     0.7949    0.9972    0.3486    0.2108
   -0.1500     0.1600    -1.871    0.353276    0.010721    0.005783   -0.123095   -0.034755     0.7933    0.9985    0.3476    0.2858
   -0.1167     0.1600    -1.806    0.358576    0.010704    0.005665   -0.124665   -0.035005     0.7913    0.9989    0.3469    0.3732
   -0.0833     0.1600    -1.760    0.362322    0.010695    0.005576   -0.125768   -0.035176     0.7896    0.9990    0.3463    0.4733
   -0.0500     0.1600    -1.730    0.364719    0.010689    0.005517   -0.126471   -0.035282     0.7885    0.9991    0.3460    0.5862
   -0.0167     0.1600    -1.715    0.365888    0.010686    0.005487   -0.126814   -0.035333     0.7879    0.9991    0.3458    0.7120
    0.0167     0.1600    -1.715    0.365888    0.010686    0.005487   -0.126814   -0.035333     0.7879    0.9991    0.3458    0.7120
    0.0500     0.1600    -1.730    0.364719    0.010689    0.005517   -0.126471   -0.035282     0.7885    0.9991    0.3460    0.5862
    0.0833     0.1600    -1.760    0.362322    0.010695    0.005576   -0.125768   -0.035176     0.7896    0.9990    0.3463    0.4733
    0.1167     0.1600    -1.806    0.358576    0.010704    0.005665   -0.124665   -0.035005     0.7913    0.9989    0.3469    0.3732
    0.1500     0.1600    -1.871    0.353276    0.010721    0.005783   -0.123095   -0.034755     0.7933    0.9985    0.3476    0.2858
    0.1833     0.1600    -1.958    0.346113    0.010751    0.005929   -0.120957   -0.034401     0.7949    0.9972    0.3486    0.2108
    0.2167     0.1600    -2.069    0.336617    0.010790    0.006097   -0.118093   -0.033903     0.7970    0.9955    0.3499    0.1481
    0.2500     0.1600    -2.212    0.324075    0.010843    0.006277   -0.114261   -0.033196     0.7998    0.9933    0.3516    0.0973
    0.2833     0.1600    -2.393    0.307369    0.010915    0.006446   -0.109068   -0.032169     0.8035    0.9902    0.3538    0.0580
    0.3167     0.1600    -2.624    0.284639    0.011013    0.006551   -0.101849   -0.030620     0.8085    0.9861    0.3567    0.0295
    0.3500     0.1600    -2.916    0.252537    0.011112    0.006474   -0.091382   -0.028168     0.8150    0.9797    0.3606    0.0111
    0.3833     0.1600    -3.279    0.204450    0.011193    0.005918   -0.075225   -0.024027     0.8238    0.9695    0.3665    0.0016
    0.4026     0.1597    -3.506    0.163756    0.011260    0.004367   -0.060875   -0.019697     0.8311    0.9607    0.3697    0.0003
    0.4069     0.1586    -3.536    0.141171    0.011333    0.004936   -0.054631   -0.018185     0.8359    0.9558    0.3784    0.0002
    0.4107     0.1564    -3.558    0.120117    0.011469    0.004771   -0.048863   -0.016323     0.8418    0.9513    0.3862    0.0001
    0.4139     0.1533    -3.597    0.100068    0.011644    0.004628   -0.043138   -0.014472     0.8484    0.9469    0.3975    0.0000
    0.4162     0.1495    -3.661    0.084234    0.011840    0.004334   -0.037278   -0.012841     0.8548    0.9430    0.4176    0.0000



Wing Cp Coefficients
 Panel     CtrlPt.x        CtrlPt.y        CtrlPt.z             Cp
Rounded tunnel shapeCp Coefficients
Strip 1
   8       1.586e-01      -4.155e-01       4.692e-05          0.0387
   9       1.503e-01      -4.155e-01       3.389e-04          0.0586
  10       1.320e-01      -4.155e-01       1.022e-03          0.0692
  11       1.067e-01      -4.155e-01       1.922e-03          0.0635
  12       7.809e-02      -4.155e-01       2.591e-03          0.0880
  13       5.057e-02      -4.155e-01       2.524e-03          0.1101
  14       2.833e-02      -4.155e-01       1.716e-03          0.1200
  15       1.476e-02      -4.155e-01       5.664e-04         -0.0472
Strip 2
  16       1.585e-01      -4.133e-01       4.811e-05          0.0312
  17       1.500e-01      -4.133e-01       3.475e-04          0.0572
  18       1.313e-01      -4.133e-01       1.048e-03          0.0746
  19       1.053e-01      -4.133e-01       1.971e-03          0.0905
  20       7.602e-02      -4.133e-01       2.657e-03          0.1208
  21       4.780e-02      -4.133e-01       2.588e-03          0.1470
  22       2.500e-02      -4.133e-01       1.760e-03          0.1747
  23       1.108e-02      -4.133e-01       5.807e-04         -0.1217
Strip 3
  24       1.585e-01      -4.102e-01       4.908e-05          0.0224
  25       1.498e-01      -4.102e-01       3.545e-04          0.0548
  26       1.308e-01      -4.102e-01       1.069e-03          0.0845
  27       1.042e-01      -4.102e-01       2.010e-03          0.1184
  28       7.432e-02      -4.102e-01       2.711e-03          0.1535
  29       4.554e-02      -4.102e-01       2.640e-03          0.1839
  30       2.227e-02      -4.102e-01       1.795e-03          0.2171
  31       8.069e-03      -4.102e-01       5.924e-04         -0.1683
Strip 4
  32       1.585e-01      -4.064e-01       4.977e-05          0.0153
  33       1.497e-01      -4.064e-01       3.595e-04          0.0529
  34       1.303e-01      -4.064e-01       1.084e-03          0.0952
  35       1.035e-01      -4.064e-01       2.039e-03          0.1457
  36       7.312e-02      -4.064e-01       2.748e-03          0.1858
  37       4.394e-02      -4.064e-01       2.677e-03          0.2194
  38       2.035e-02      -4.064e-01       1.821e-03          0.2527
  39       5.947e-03      -4.064e-01       6.007e-04         -0.1890
Strip 5
  40       1.585e-01      -4.022e-01       5.012e-05          0.0064
  41       1.496e-01      -4.022e-01       3.620e-04          0.0497
  42       1.301e-01      -4.022e-01       1.092e-03          0.1058
  43       1.031e-01      -4.022e-01       2.053e-03          0.1738
  44       7.251e-02      -4.022e-01       2.768e-03          0.2194
  45       4.311e-02      -4.022e-01       2.696e-03          0.2551
  46       1.935e-02      -4.022e-01       1.834e-03          0.2877
  47       4.849e-03      -4.022e-01       6.050e-04         -0.1801
Strip 6
  48       1.585e-01      -3.833e-01       5.021e-05          0.0179
  49       1.496e-01      -3.833e-01       3.627e-04          0.0646
  50       1.301e-01      -3.833e-01       1.094e-03          0.1312
  51       1.030e-01      -3.833e-01       2.057e-03          0.2133
  52       7.235e-02      -3.833e-01       2.773e-03          0.2698
  53       4.290e-02      -3.833e-01       2.701e-03          0.3122
  54       1.910e-02      -3.833e-01       1.837e-03          0.3442
  55       4.567e-03      -3.833e-01       6.061e-04         -0.1160
Strip 7
  56       1.585e-01      -3.500e-01       5.021e-05          0.0274
  57       1.496e-01      -3.500e-01       3.627e-04          0.0826
  58       1.301e-01      -3.500e-01       1.094e-03          0.1613
  59       1.030e-01      -3.500e-01       2.057e-03          0.2568
  60       7.235e-02      -3.500e-01       2.773e-03          0.3228
  61       4.290e-02      -3.500e-01       2.701e-03          0.3702
  62       1.910e-02      -3.500e-01       1.837e-03          0.4138
  63       4.567e-03      -3.500e-01       6.061e-04          0.0243
Strip 8
  64       1.585e-01      -3.167e-01       5.021e-05          0.0344
  65       1.496e-01      -3.167e-01       3.627e-04          0.0953
  66       1.301e-01      -3.167e-01       1.094e-03          0.1811
  67       1.030e-01      -3.167e-01       2.057e-03          0.2839
  68       7.235e-02      -3.167e-01       2.773e-03          0.3556
  69       4.290e-02      -3.167e-01       2.701e-03          0.4079
  70       1.910e-02      -3.167e-01       1.837e-03          0.4642
  71       4.567e-03      -3.167e-01       6.061e-04          0.1312
Strip 9
  72       1.585e-01      -2.833e-01       5.021e-05          0.0394
  73       1.496e-01      -2.833e-01       3.627e-04          0.1043
  74       1.301e-01      -2.833e-01       1.094e-03          0.1948
  75       1.030e-01      -2.833e-01       2.057e-03          0.3022
  76       7.235e-02      -2.833e-01       2.773e-03          0.3779
  77       4.290e-02      -2.833e-01       2.701e-03          0.4347
  78       1.910e-02      -2.833e-01       1.837e-03          0.5016
  79       4.567e-03      -2.833e-01       6.061e-04          0.2125
Strip 10
  80       1.585e-01      -2.500e-01       5.021e-05          0.0430
  81       1.496e-01      -2.500e-01       3.627e-04          0.1108
  82       1.301e-01      -2.500e-01       1.094e-03          0.2045
  83       1.030e-01      -2.500e-01       2.057e-03          0.3152
  84       7.235e-02      -2.500e-01       2.773e-03          0.3938
  85       4.290e-02      -2.500e-01       2.701e-03          0.4544
  86       1.910e-02      -2.500e-01       1.837e-03          0.5299
  87       4.567e-03      -2.500e-01       6.061e-04          0.2751
Strip 11
  88       1.585e-01      -2.167e-01       5.021e-05          0.0457
  89       1.496e-01      -2.167e-01       3.627e-04          0.1156
  90       1.301e-01      -2.167e-01       1.094e-03          0.2116
  91       1.030e-01      -2.167e-01       2.057e-03          0.3246
  92       7.235e-02      -2.167e-01       2.773e-03          0.4056
  93       4.290e-02      -2.167e-01       2.701e-03          0.4692
  94       1.910e-02      -2.167e-01       1.837e-03          0.5517
  95       4.567e-03      -2.167e-01       6.061e-04          0.3236
Strip 12
  96       1.585e-01      -1.833e-01       5.021e-05          0.0477
  97       1.496e-01      -1.833e-01       3.627e-04          0.1191
  98       1.301e-01      -1.833e-01       1.094e-03          0.2169
  99       1.030e-01      -1.833e-01       2.057e-03          0.3317
 100       7.235e-02      -1.833e-01       2.773e-03          0.4145
 101       4.290e-02      -1.833e-01       2.701e-03          0.4805
 102       1.910e-02      -1.833e-01       1.837e-03          0.5685
 103       4.567e-03      -1.833e-01       6.061e-04          0.3612
Strip 13
 104       1.585e-01      -1.500e-01       5.021e-05          0.0492
 105       1.496e-01      -1.500e-01       3.627e-04          0.1218
 106       1.301e-01      -1.500e-01       1.094e-03          0.2209
 107       1.030e-01      -1.500e-01       2.057e-03          0.3369
 108       7.235e-02      -1.500e-01       2.773e-03          0.4211
 109       4.290e-02      -1.500e-01       2.701e-03          0.4890
 110       1.910e-02      -1.500e-01       1.837e-03          0.5813
 111       4.567e-03      -1.500e-01       6.061e-04          0.3900
Strip 14
 112       1.585e-01      -1.167e-01       5.021e-05          0.0503
 113       1.496e-01      -1.167e-01       3.627e-04          0.1237
 114       1.301e-01      -1.167e-01       1.094e-03          0.2237
 115       1.030e-01      -1.167e-01       2.057e-03          0.3407
 116       7.235e-02      -1.167e-01       2.773e-03          0.4259
 117       4.290e-02      -1.167e-01       2.701e-03          0.4953
 118       1.910e-02      -1.167e-01       1.837e-03          0.5908
 119       4.567e-03      -1.167e-01       6.061e-04          0.4116
Strip 15
 120       1.585e-01      -8.333e-02       5.021e-05          0.0511
 121       1.496e-01      -8.333e-02       3.627e-04          0.1251
 122       1.301e-01      -8.333e-02       1.094e-03          0.2258
 123       1.030e-01      -8.333e-02       2.057e-03          0.3434
 124       7.235e-02      -8.333e-02       2.773e-03          0.4293
 125       4.290e-02      -8.333e-02       2.701e-03          0.4998
 126       1.910e-02      -8.333e-02       1.837e-03          0.5976
 127       4.567e-03      -8.333e-02       6.061e-04          0.4270
Strip 16
 128       1.585e-01      -5.000e-02       5.021e-05          0.0516
 129       1.496e-01      -5.000e-02       3.627e-04          0.1259
 130       1.301e-01      -5.000e-02       1.094e-03          0.2270
 131       1.030e-01      -5.000e-02       2.057e-03          0.3451
 132       7.235e-02      -5.000e-02       2.773e-03          0.4315
 133       4.290e-02      -5.000e-02       2.701e-03          0.5027
 134       1.910e-02      -5.000e-02       1.837e-03          0.6020
 135       4.567e-03      -5.000e-02       6.061e-04          0.4370
Strip 17
 136       1.585e-01      -1.667e-02       5.021e-05          0.0518
 137       1.496e-01      -1.667e-02       3.627e-04          0.1263
 138       1.301e-01      -1.667e-02       1.094e-03          0.2277
 139       1.030e-01      -1.667e-02       2.057e-03          0.3460
 140       7.235e-02      -1.667e-02       2.773e-03          0.4326
 141       4.290e-02      -1.667e-02       2.701e-03          0.5040
 142       1.910e-02      -1.667e-02       1.837e-03          0.6041
 143       4.567e-03      -1.667e-02       6.061e-04          0.4418
Strip 18
 144       1.585e-01       1.667e-02       5.021e-05          0.0518
 145       1.496e-01       1.667e-02       3.627e-04          0.1263
 146       1.301e-01       1.667e-02       1.094e-03          0.2277
 147       1.030e-01       1.667e-02       2.057e-03          0.3460
 148       7.235e-02       1.667e-02       2.773e-03          0.4326
 149       4.290e-02       1.667e-02       2.701e-03          0.5040
 150       1.910e-02       1.667e-02       1.837e-03          0.6041
 151       4.567e-03       1.667e-02       6.061e-04          0.4418
Strip 19
 152       1.585e-01       5.000e-02       5.021e-05          0.0516
 153       1.496e-01       5.000e-02       3.627e-04          0.1259
 154       1.301e-01       5.000e-02       1.094e-03          0.2270
 155       1.030e-01       5.000e-02       2.057e-03          0.3451
 156       7.235e-02       5.000e-02       2.773e-03          0.4315
 157       4.290e-02       5.000e-02       2.701e-03          0.5027
 158       1.910e-02       5.000e-02       1.837e-03          0.6020
 159       4.567e-03       5.000e-02       6.061e-04          0.4370
Strip 20
 160       1.585e-01       8.333e-02       5.021e-05          0.0511
 161       1.496e-01       8.333e-02       3.627e-04          0.1251
 162       1.301e-01       8.333e-02       1.094e-03          0.2258
 163       1.030e-01       8.333e-02       2.057e-03          0.3434
 164       7.235e-02       8.333e-02       2.773e-03          0.4293
 165       4.290e-02       8.333e-02       2.701e-03          0.4998
 166       1.910e-02       8.333e-02       1.837e-03          0.5976
 167       4.567e-03       8.333e-02       6.061e-04          0.4270
Strip 21
 168       1.585e-01       1.167e-01       5.021e-05          0.0503
 169       1.496e-01       1.167e-01       3.627e-04          0.1237
 170       1.301e-01       1.167e-01       1.094e-03          0.2237
 171       1.030e-01       1.167e-01       2.057e-03          0.3407
 172       7.235e-02       1.167e-01       2.773e-03          0.4259
 173       4.290e-02       1.167e-01       2.701e-03          0.4953
 174       1.910e-02       1.167e-01       1.837e-03          0.5908
 175       4.567e-03       1.167e-01       6.061e-04          0.4116
Strip 22
 176       1.585e-01       1.500e-01       5.021e-05          0.0492
 177       1.496e-01       1.500e-01       3.627e-04          0.1218
 178       1.301e-01       1.500e-01       1.094e-03          0.2209
 179       1.030e-01       1.500e-01       2.057e-03          0.3369
 180       7.235e-02       1.500e-01       2.773e-03          0.4211
 181       4.290e-02       1.500e-01       2.701e-03          0.4890
 182       1.910e-02       1.500e-01       1.837e-03          0.5813
 183       4.567e-03       1.500e-01       6.061e-04          0.3900
Strip 23
 184       1.585e-01       1.833e-01       5.021e-05          0.0477
 185       1.496e-01       1.833e-01       3.627e-04          0.1191
 186       1.301e-01       1.833e-01       1.094e-03          0.2169
 187       1.030e-01       1.833e-01       2.057e-03          0.3317
 188       7.235e-02       1.833e-01       2.773e-03          0.4145
 189       4.290e-02       1.833e-01       2.701e-03          0.4805
 190       1.910e-02       1.833e-01       1.837e-03          0.5685
 191       4.567e-03       1.833e-01       6.061e-04          0.3612
Strip 24
 192       1.585e-01       2.167e-01       5.021e-05          0.0457
 193       1.496e-01       2.167e-01       3.627e-04          0.1156
 194       1.301e-01       2.167e-01       1.094e-03          0.2116
 195       1.030e-01       2.167e-01       2.057e-03          0.3246
 196       7.235e-02       2.167e-01       2.773e-03          0.4056
 197       4.290e-02       2.167e-01       2.701e-03          0.4692
 198       1.910e-02       2.167e-01       1.837e-03          0.5517
 199       4.567e-03       2.167e-01       6.061e-04          0.3236
Strip 25
 200       1.585e-01       2.500e-01       5.021e-05          0.0430
 201       1.496e-01       2.500e-01       3.627e-04          0.1108
 202       1.301e-01       2.500e-01       1.094e-03          0.2045
 203       1.030e-01       2.500e-01       2.057e-03          0.3152
 204       7.235e-02       2.500e-01       2.773e-03          0.3938
 205       4.290e-02       2.500e-01       2.701e-03          0.4544
 206       1.910e-02       2.500e-01       1.837e-03          0.5299
 207       4.567e-03       2.500e-01       6.061e-04          0.2751
Strip 26
 208       1.585e-01       2.833e-01       5.021e-05          0.0394
 209       1.496e-01       2.833e-01       3.627e-04          0.1043
 210       1.301e-01       2.833e-01       1.094e-03          0.1948
 211       1.030e-01       2.833e-01       2.057e-03          0.3022
 212       7.235e-02       2.833e-01       2.773e-03          0.3779
 213       4.290e-02       2.833e-01       2.701e-03          0.4347
 214       1.910e-02       2.833e-01       1.837e-03          0.5016
 215       4.567e-03       2.833e-01       6.061e-04          0.2125
Strip 27
 216       1.585e-01       3.167e-01       5.021e-05          0.0344
 217       1.496e-01       3.167e-01       3.627e-04          0.0953
 218       1.301e-01       3.167e-01       1.094e-03          0.1811
 219       1.030e-01       3.167e-01       2.057e-03          0.2839
 220       7.235e-02       3.167e-01       2.773e-03          0.3556
 221       4.290e-02       3.167e-01       2.701e-03          0.4079
 222       1.910e-02       3.167e-01       1.837e-03          0.4642
 223       4.567e-03       3.167e-01       6.061e-04          0.1312
Strip 28
 224       1.585e-01       3.500e-01       5.021e-05          0.0274
 225       1.496e-01       3.500e-01       3.627e-04          0.0826
 226       1.301e-01       3.500e-01       1.094e-03          0.1613
 227       1.030e-01       3.500e-01       2.057e-03          0.2568
 228       7.235e-02       3.500e-01       2.773e-03          0.3228
 229       4.290e-02       3.500e-01       2.701e-03          0.3702
 230       1.910e-02       3.500e-01       1.837e-03          0.4138
 231       4.567e-03       3.500e-01       6.061e-04          0.0243
Strip 29
 232       1.585e-01       3.833e-01       5.021e-05          0.0179
 233       1.496e-01       3.833e-01       3.627e-04          0.0646
 234       1.301e-01       3.833e-01       1.094e-03          0.1312
 235       1.030e-01       3.833e-01       2.057e-03          0.2133
 236       7.235e-02       3.833e-01       2.773e-03          0.2698
 237       4.290e-02       3.833e-01       2.701e-03          0.3122
 238       1.910e-02       3.833e-01       1.837e-03          0.3442
 239       4.567e-03       3.833e-01       6.061e-04         -0.1160
Strip 30
 240       1.585e-01       4.022e-01       5.012e-05          0.0064
 241       1.496e-01       4.022e-01       3.620e-04          0.0497
 242       1.301e-01       4.022e-01       1.092e-03          0.1058
 243       1.031e-01       4.022e-01       2.053e-03          0.1738
 244       7.251e-02       4.022e-01       2.768e-03          0.2194
 245       4.311e-02       4.022e-01       2.696e-03          0.2551
 246       1.935e-02       4.022e-01       1.834e-03          0.2877
 247       4.849e-03       4.022e-01       6.050e-04         -0.1801
Strip 31
 248       1.585e-01       4.064e-01       4.977e-05          0.0153
 249       1.497e-01       4.064e-01       3.595e-04          0.0529
 250       1.303e-01       4.064e-01       1.084e-03          0.0952
 251       1.035e-01       4.064e-01       2.039e-03          0.1457
 252       7.312e-02       4.064e-01       2.748e-03          0.1858
 253       4.394e-02       4.064e-01       2.677e-03          0.2194
 254       2.035e-02       4.064e-01       1.821e-03          0.2527
 255       5.947e-03       4.064e-01       6.007e-04         -0.1890
Strip 32
 256       1.585e-01       4.102e-01       4.908e-05          0.0224
 257       1.498e-01       4.102e-01       3.545e-04          0.0548
 258       1.308e-01       4.102e-01       1.069e-03          0.0845
 259       1.042e-01       4.102e-01       2.010e-03          0.1184
 260       7.432e-02       4.102e-01       2.711e-03          0.1535
 261       4.554e-02       4.102e-01       2.640e-03          0.1839
 262       2.227e-02       4.102e-01       1.795e-03          0.2171
 263       8.069e-03       4.102e-01       5.924e-04         -0.1683
Strip 33
 264       1.585e-01       4.133e-01       4.811e-05          0.0312
 265       1.500e-01       4.133e-01       3.475e-04          0.0572
 266       1.313e-01       4.133e-01       1.048e-03          0.0746
 267       1.053e-01       4.133e-01       1.971e-03          0.0905
 268       7.602e-02       4.133e-01       2.657e-03          0.1208
 269       4.780e-02       4.133e-01       2.588e-03          0.1470
 270       2.500e-02       4.133e-01       1.760e-03          0.1747
 271       1.108e-02       4.133e-01       5.807e-04         -0.1217
Strip 34
 272       1.586e-01       4.155e-01       4.692e-05          0.0387
 273       1.503e-01       4.155e-01       3.389e-04          0.0586
 274       1.320e-01       4.155e-01       1.022e-03          0.0692
 275       1.067e-01       4.155e-01       1.922e-03          0.0635
 276       7.809e-02       4.155e-01       2.591e-03          0.0880
 277       5.057e-02       4.155e-01       2.524e-03          0.1101
 278       2.833e-02       4.155e-01       1.716e-03          0.1200
 279       1.476e-02       4.155e-01       5.664e-04         -0.0472
Strip 35
 280       1.586e-01       4.166e-01       4.560e-05         -0.0772
 281       1.505e-01       4.166e-01       3.293e-04          0.0244
 282       1.328e-01       4.166e-01       9.931e-04          0.1095
 283       1.082e-01       4.166e-01       1.868e-03          0.0646
 284       8.041e-02       4.166e-01       2.518e-03          0.0582
 285       5.367e-02       4.166e-01       2.452e-03          0.0736
 286       3.205e-02       4.166e-01       1.668e-03          0.0511
 287       1.886e-02       4.166e-01       5.504e-04          0.0724
Strip 36
 288       0.000e+00       0.000e+00       0.000e+00          0.0000
 289       0.000e+00       0.000e+00       0.000e+00          0.0000
 290       0.000e+00       0.000e+00       0.000e+00          0.0000
 291       0.000e+00       0.000e+00       0.000e+00          0.0000
 292       0.000e+00       0.000e+00       0.000e+00          0.0000
 293       0.000e+00       0.000e+00       0.000e+00          0.0000
 294       0.000e+00       0.000e+00       0.000e+00          0.0000
 295       0.000e+00       0.000e+00       0.000e+00          0.0000










